Circuit: * C:\Users\Nanodyn - Spare\OneDrive - Nanodyn\Desktop\GIT repository\Waveform-generator\LTspice Circuits\High side MOSFET switch.asc

Limiting rise time of source v2 to 0.2
Limiting fall time of source v2 to 0.2
Direct Newton iteration for .op point succeeded.

Date: Wed Feb 10 16:42:27 2021
Total elapsed time: 0.112 seconds.

tnom = 27
temp = 27
method = modified trap
totiter = 2282
traniter = 2278
tranpoints = 1140
accept = 1116
rejected = 24
matrix size = 5
fillins = 0
solver = Normal
Matrix Compiler1: 204 bytes object code size  0.1/0.1/[0.1]
Matrix Compiler2: 311 bytes object code size  0.1/0.2/[0.1]

