Circuit: * C:\Users\Nanodyn - Spare\OneDrive - Nanodyn\Desktop\GIT repository\Waveform-generator\LTspice Circuits\Signal level shifting circuit.asc

Instance "m:u2:6": Length shorter than recommended for a level 2 MOSFET.
Instance "m:u2:5": Length shorter than recommended for a level 2 MOSFET.
Direct Newton iteration failed to find .op point.  (Use ".option noopiter" to skip.)
Starting Gmin stepping
Gmin = 10
Gmin = 1.07374
Gmin = 0.115292
Gmin = 0.0123794
Gmin = 0.00132923
vernier = 0.5
vernier = 0.25
vernier = 0.125
vernier = 0.0625
Gmin = 0.00100083
vernier = 0.03125
vernier = 0.015625
vernier = 0.0078125
vernier = 0.00390625
vernier = 0.00195313
Gmin = 0.00100083
vernier = 0.000976563
vernier = 0.000488281
Gmin = 0
Gmin stepping failed

Starting source stepping with srcstepmethod=0
Source Step = 3.0303%
Source Step = 33.3333%
Source Step = 42.4302%
Source Step = 42.4598%
Source Step = 42.4893%
Source Step = 42.5189%
Source Step = 42.5485%
Source Step = 42.5781%
vernier = 0.00146484
Source Step = 42.6225%
Source Step = 42.6669%
Source Step = 42.7113%
Source Step = 42.7557%
Source Step = 42.8001%
vernier = 0.00219727
Source Step = 42.8644%
Source Step = 42.931%
Source Step = 42.9976%
Source Step = 43.0642%
Source Step = 43.1308%
vernier = 0.0032959
Source Step = 43.224%
Source Step = 43.3239%
Source Step = 43.4237%
Source Step = 43.5236%
Source Step = 43.6235%
vernier = 0.00494385
Source Step = 43.7583%
Source Step = 43.9081%
Source Step = 44.058%
Source Step = 44.2078%
Source Step = 44.3576%
vernier = 0.00741577
Source Step = 44.5523%
Source Step = 44.7771%
Source Step = 45.0018%
Source Step = 45.2265%
Source Step = 45.4512%
vernier = 0.0111237
Source Step = 45.7321%
Source Step = 46.0692%
Source Step = 46.4063%
Source Step = 46.7434%
Source Step = 47.0804%
vernier = 0.0166855
Source Step = 47.4849%
Source Step = 47.9906%
Source Step = 48.4962%
Source Step = 49.0018%
Source Step = 49.5074%
vernier = 0.0250282
Source Step = 50.0889%
Source Step = 50.8473%
Source Step = 51.6057%
Source Step = 52.3642%
Source Step = 53.1226%
vernier = 0.0375423
Source Step = 53.9569%
Source Step = 55.0945%
Source Step = 56.2322%
Source Step = 57.3698%
Source Step = 58.5075%
vernier = 0.0563135
Source Step = 59.702%
Source Step = 61.4085%
Source Step = 63.1149%
Source Step = 64.8214%
Source Step = 66.5279%
Source Step = 68.2343%
vernier = 0.0844703
Source Step = 70.7941%
Source Step = 73.3538%
Source Step = 75.9135%
Source Step = 78.4732%
Source Step = 81.0329%
vernier = 0.126705
Source Step = 84.7444%
Source Step = 88.584%
Source Step = 92.4236%
Source Step = 96.2631%
Source Step = 100%
Source stepping succeeded in finding the operating point.

Heightened Def Con from 6.2235e-010 to 6.536e-010
Heightened Def Con from 6.536e-010 to 6.55554e-010
Heightened Def Con from 6.55554e-010 to 6.57507e-010
Heightened Def Con from 6.57507e-010 to 6.5946e-010
Heightened Def Con from 5.06444e-005 to 5.06444e-005
Heightened Def Con from 5.06444e-005 to 5.06444e-005
Heightened Def Con from 5.06444e-005 to 5.06444e-005
Heightened Def Con from 5.06444e-005 to 5.06444e-005
Heightened Def Con from 5.06444e-005 to 5.06444e-005
Heightened Def Con from 5.06444e-005 to 5.06444e-005
Heightened Def Con from 5.06444e-005 to 5.06444e-005
Heightened Def Con from 5.06444e-005 +++++++++++++++++++to 5.06454e-005
Heightened Def Con from 5.06454e-005 +++++++++++to 5.06465e-005
Heightened Def Con from 5.06465e-005 ++++++++to 5.06466e-005
Heightened Def Con from 5.06466e-005 +++++++to 5.06468e-005
Heightened Def Con from 5.06468e-005 +++++++to 5.06469e-005
Heightened Def Con from 0.000100717 to 0.000100717
Heightened Def Con from 0.000100717 to 0.000100717
Heightened Def Con from 0.000100717 +to 0.000100717
Heightened Def Con from 0.000100717 +to 0.000100717
Heightened Def Con from 0.000100717 to 0.000100717
Heightened Def Con from 0.000100717 to 0.000100717
Heightened Def Con from 0.000100717 to 0.000100717
Heightened Def Con from 0.000100717 +to 0.000100717
Heightened Def Con from 0.000100717 to 0.000100717
Heightened Def Con from 0.000100717 +to 0.000100717
Heightened Def Con from 0.000100717 to 0.000100717
Heightened Def Con from 0.000100717 to 0.000100717
Heightened Def Con from 0.000100717 to 0.000100717
Heightened Def Con from 0.000100717 to 0.000100717
Heightened Def Con from 0.000100717 to 0.000100717
Heightened Def Con from 0.000100717 to 0.000100717
Heightened Def Con from 0.000100717 to 0.000100717
Heightened Def Con from 0.000100717 to 0.000100717
Heightened Def Con from 0.000100717 to 0.000100717
Heightened Def Con from 0.000100717 to 0.000100717
Heightened Def Con from 0.000100717 +++++++++++++++++++to 0.000100718
Heightened Def Con from 0.000100718 ++++++++++to 0.000100719
Heightened Def Con from 0.000100719 ++++++++++to 0.000100719
Heightened Def Con from 0.000100719 ++++++++++to 0.000100719
Heightened Def Con from 0.000100719 ++++++++++to 0.000100719
Heightened Def Con from 0.000100719 ++++++++++to 0.000100719
Heightened Def Con from 0.000100719 ++++++++++to 0.000100719
Heightened Def Con from 0.000150645 to 0.000150645
Heightened Def Con from 0.000150645 to 0.000150645
Heightened Def Con from 0.000150645 to 0.000150645
Heightened Def Con from 0.000150645 to 0.000150645
Heightened Def Con from 0.000150645 to 0.000150645
Heightened Def Con from 0.000150645 to 0.000150645
Heightened Def Con from 0.000150645 to 0.000150645
Heightened Def Con from 0.000150645 to 0.000150645
Heightened Def Con from 0.000150645 to 0.000150645
Heightened Def Con from 0.000150645 to 0.000150645
Heightened Def Con from 0.000150645 to 0.000150645
Heightened Def Con from 0.000150645 to 0.000150645
Heightened Def Con from 0.000150645 +++++++++++++++++++to 0.000150646
Heightened Def Con from 0.000150646 +++++++++++to 0.000150647
Heightened Def Con from 0.000150647 ++++++++to 0.000150647
Heightened Def Con from 0.000150647 +++++++to 0.000150647
Heightened Def Con from 0.000150647 +++++++to 0.000150647
Heightened Def Con from 0.000200717 to 0.000200717
Heightened Def Con from 0.000200717 to 0.000200717
Heightened Def Con from 0.000200717 to 0.000200717
Heightened Def Con from 0.000200717 to 0.000200717
Heightened Def Con from 0.000200717 to 0.000200717
Heightened Def Con from 0.000200717 to 0.000200717
Heightened Def Con from 0.000200717 to 0.000200717
Heightened Def Con from 0.000200717 to 0.000200717
Heightened Def Con from 0.000200717 to 0.000200717
Heightened Def Con from 0.000200717 to 0.000200717
Heightened Def Con from 0.000200717 to 0.000200717
Heightened Def Con from 0.000200717 to 0.000200717
Heightened Def Con from 0.000200717 to 0.000200717
Heightened Def Con from 0.000200717 +to 0.000200717
Heightened Def Con from 0.000200717 +to 0.000200717
Heightened Def Con from 0.000200717 to 0.000200717
Heightened Def Con from 0.000200717 +to 0.000200717
Heightened Def Con from 0.000200717 to 0.000200717
Heightened Def Con from 0.000200717 to 0.000200717
Heightened Def Con from 0.000200717 to 0.000200717
Heightened Def Con from 0.000200717 to 0.000200717
Heightened Def Con from 0.000200717 +to 0.000200717
Heightened Def Con from 0.000200717 +++++++++++++++++++to 0.000200718
Heightened Def Con from 0.000200718 +++++++++++to 0.000200719
Heightened Def Con from 0.000200719 +++++++++++to 0.00020072
Heightened Def Con from 0.00020072 +++++++++++to 0.000200721
Heightened Def Con from 0.000250645 to 0.000250645
Heightened Def Con from 0.000250645 to 0.000250645
Heightened Def Con from 0.000250645 to 0.000250645
Heightened Def Con from 0.000250645 to 0.000250645
Heightened Def Con from 0.000250645 to 0.000250645
Heightened Def Con from 0.000250645 to 0.000250645
Heightened Def Con from 0.000250645 to 0.000250645
Heightened Def Con from 0.000250645 to 0.000250645
Heightened Def Con from 0.000250645 to 0.000250645
Heightened Def Con from 0.000250645 to 0.000250645
Heightened Def Con from 0.000250645 to 0.000250645
Heightened Def Con from 0.000250645 to 0.000250645
Heightened Def Con from 0.000250645 to 0.000250645
Heightened Def Con from 0.000250645 to 0.000250645
Heightened Def Con from 0.000250645 +to 0.000250645
Heightened Def Con from 0.000250645 to 0.000250645
Heightened Def Con from 0.000250645 to 0.000250645
Heightened Def Con from 0.000250645 to 0.000250645
Heightened Def Con from 0.000250645 +to 0.000250645
Heightened Def Con from 0.000250645 +++++++++++++++++++to 0.000250646
Heightened Def Con from 0.000250646 ++++++++++to 0.000250646
Heightened Def Con from 0.000250647 ++to 0.000250647
Heightened Def Con from 0.000250647 +to 0.000250647
Heightened Def Con from 0.000250647 +to 0.000250647
Heightened Def Con from 0.000250647 +to 0.000250647
Heightened Def Con from 0.000250647 ++to 0.000250647
Heightened Def Con from 0.000250647 +to 0.000250647
Heightened Def Con from 0.000250647 +to 0.000250647
Heightened Def Con from 0.000250647 +to 0.000250647
Heightened Def Con from 0.000250647 +to 0.000250647
Heightened Def Con from 0.000250647 +to 0.000250647
Heightened Def Con from 0.000250647 ++to 0.000250647
Heightened Def Con from 0.000250647 +to 0.000250647
Heightened Def Con from 0.000250647 +to 0.000250647
Heightened Def Con from 0.000250647 +to 0.000250647
Heightened Def Con from 0.000250647 +to 0.000250647
Heightened Def Con from 0.000250647 +to 0.000250647
Heightened Def Con from 0.000250647 ++to 0.000250647
Heightened Def Con from 0.000250647 +to 0.000250647
Heightened Def Con from 0.000250647 ++to 0.000250647
Heightened Def Con from 0.000250647 +to 0.000250647
Heightened Def Con from 0.000250647 +to 0.000250647
Heightened Def Con from 0.000250647 ++to 0.000250647
Heightened Def Con from 0.000250647 +to 0.000250647
Heightened Def Con from 0.000250647 ++to 0.000250647
Heightened Def Con from 0.000250647 +to 0.000250647
Heightened Def Con from 0.000250647 +to 0.000250647
Heightened Def Con from 0.000250647 +to 0.000250647
Heightened Def Con from 0.000250647 ++to 0.000250647
Heightened Def Con from 0.000250647 +to 0.000250647
Heightened Def Con from 0.000250647 +to 0.000250647
Heightened Def Con from 0.000250647 +to 0.000250647
Heightened Def Con from 0.000250647 +to 0.000250647
Heightened Def Con from 0.000250647 +to 0.000250647
Heightened Def Con from 0.000250647 +to 0.000250647
Heightened Def Con from 0.000250647 +to 0.000250647
Heightened Def Con from 0.000250647 ++to 0.000250647
Heightened Def Con from 0.000250647 +to 0.000250647
Heightened Def Con from 0.000250647 +to 0.000250647
Heightened Def Con from 0.000250647 ++to 0.000250647
Heightened Def Con from 0.000250647 ++to 0.000250647
Heightened Def Con from 0.000250647 +to 0.000250647
Heightened Def Con from 0.000250647 +to 0.000250647
Heightened Def Con from 0.000250647 +to 0.000250647
Heightened Def Con from 0.000250647 +to 0.000250647
Heightened Def Con from 0.000250647 +to 0.000250647
Heightened Def Con from 0.000250647 ++to 0.000250647
Heightened Def Con from 0.000250647 ++to 0.000250647
Heightened Def Con from 0.000250647 +to 0.000250647
Heightened Def Con from 0.000250647 +to 0.000250647
Heightened Def Con from 0.000250647 +to 0.000250647
Heightened Def Con from 0.000250647 ++to 0.000250647
Heightened Def Con from 0.000250647 ++to 0.000250647
Heightened Def Con from 0.000250647 +to 0.000250647
Heightened Def Con from 0.000250647 +to 0.000250647
Heightened Def Con from 0.000250647 +to 0.000250647
Heightened Def Con from 0.000250647 +to 0.000250647
Heightened Def Con from 0.000250647 +to 0.000250647
Heightened Def Con from 0.000250647 +to 0.000250647
Heightened Def Con from 0.000250647 +to 0.000250647
Heightened Def Con from 0.000250647 +to 0.000250647
Heightened Def Con from 0.000250647 ++to 0.000250647
Heightened Def Con from 0.000250647 ++to 0.000250647
Heightened Def Con from 0.000250647 +to 0.000250647
Heightened Def Con from 0.000250647 +to 0.000250647
Heightened Def Con from 0.000250647 +to 0.000250647
Heightened Def Con from 0.000250647 +to 0.000250647
Heightened Def Con from 0.000250647 +to 0.000250647
Heightened Def Con from 0.000250647 ++to 0.000250647
Heightened Def Con from 0.000250647 +to 0.000250647
Heightened Def Con from 0.000250647 +to 0.000250647
Heightened Def Con from 0.000250647 +to 0.000250647
Heightened Def Con from 0.000250647 +to 0.000250647
Heightened Def Con from 0.000250647 ++to 0.000250647
Heightened Def Con from 0.000250647 +to 0.000250647
Heightened Def Con from 0.000250647 +to 0.000250647
Heightened Def Con from 0.000250647 +to 0.000250647
Heightened Def Con from 0.000250647 +to 0.000250647
Heightened Def Con from 0.000250647 +to 0.000250647
Heightened Def Con from 0.000250647 +to 0.000250647
Heightened Def Con from 0.000250647 +to 0.000250647
Heightened Def Con from 0.000250647 +to 0.000250647
Heightened Def Con from 0.000250647 +to 0.000250647
Heightened Def Con from 0.000250647 +to 0.000250647
Heightened Def Con from 0.000250647 +to 0.000250647
Heightened Def Con from 0.000250647 +to 0.000250647
Heightened Def Con from 0.000250647 +to 0.000250647
Heightened Def Con from 0.000250647 +++to 0.000250647
Heightened Def Con from 0.000250647 +to 0.000250647
Heightened Def Con from 0.000250647 +to 0.000250647
Heightened Def Con from 0.000250647 +to 0.000250647
Heightened Def Con from 0.000250647 +to 0.000250647
Heightened Def Con from 0.000250647 +to 0.000250647
Heightened Def Con from 0.000250647 +to 0.000250647
Heightened Def Con from 0.000250647 +to 0.000250647
Heightened Def Con from 0.000250647 +to 0.000250647
Heightened Def Con from 0.000250647 ++to 0.000250647
Heightened Def Con from 0.000250647 ++to 0.000250647
Heightened Def Con from 0.000250647 +++to 0.000250647
Heightened Def Con from 0.000250647 +to 0.000250647
Heightened Def Con from 0.000250647 ++to 0.000250647
Heightened Def Con from 0.000250647 +to 0.000250647
Heightened Def Con from 0.000250647 +to 0.000250647
Heightened Def Con from 0.000250647 ++to 0.000250647
Heightened Def Con from 0.000250647 +to 0.000250647
Heightened Def Con from 0.000250647 +to 0.000250647
Heightened Def Con from 0.000250647 +to 0.000250647
Heightened Def Con from 0.000250647 +to 0.000250647
Heightened Def Con from 0.000250647 +to 0.000250647
Heightened Def Con from 0.000250647 +to 0.000250647
Heightened Def Con from 0.000250647 +to 0.000250647
Heightened Def Con from 0.000250647 +to 0.000250647
Heightened Def Con from 0.000250647 ++to 0.000250647
Heightened Def Con from 0.000250647 +to 0.000250647
Heightened Def Con from 0.000250647 ++to 0.000250647
Heightened Def Con from 0.000250647 +to 0.000250647
Heightened Def Con from 0.000250647 +to 0.000250647
Heightened Def Con from 0.000250647 +to 0.000250647
Heightened Def Con from 0.000250647 ++to 0.000250647
Heightened Def Con from 0.000250647 +to 0.000250647
Heightened Def Con from 0.000250647 +to 0.000250647
Heightened Def Con from 0.000250647 ++to 0.000250647
Heightened Def Con from 0.000250647 +to 0.000250647
Heightened Def Con from 0.000250647 ++to 0.000250647
Heightened Def Con from 0.000250647 +to 0.000250647
Heightened Def Con from 0.000250647 ++to 0.000250647
Heightened Def Con from 0.000250647 ++to 0.000250647
Heightened Def Con from 0.000250647 ++to 0.000250647
Heightened Def Con from 0.000250647 +to 0.000250647
Heightened Def Con from 0.000250647 ++to 0.000250647
Heightened Def Con from 0.000250647 ++to 0.000250647
Heightened Def Con from 0.000250647 +to 0.000250647
Heightened Def Con from 0.000250647 ++to 0.000250647
Heightened Def Con from 0.000250647 ++to 0.000250647
Heightened Def Con from 0.000250647 +to 0.000250647
Heightened Def Con from 0.000250647 +to 0.000250647
Heightened Def Con from 0.000250647 +to 0.000250647
Heightened Def Con from 0.000250647 +to 0.000250647
Heightened Def Con from 0.000250647 ++to 0.000250647
Heightened Def Con from 0.000250647 ++to 0.000250647
Heightened Def Con from 0.000250647 +to 0.000250647
Heightened Def Con from 0.000250647 +to 0.000250647
Heightened Def Con from 0.000250647 +to 0.000250647
Heightened Def Con from 0.000250647 ++to 0.000250647
Heightened Def Con from 0.000250647 +to 0.000250647
Heightened Def Con from 0.000250647 ++to 0.000250647
Heightened Def Con from 0.000250647 +to 0.000250647
Heightened Def Con from 0.000250647 +to 0.000250647
Heightened Def Con from 0.000250647 +to 0.000250647
Heightened Def Con from 0.000250647 +to 0.000250647
Heightened Def Con from 0.000250647 ++to 0.000250647
Heightened Def Con from 0.000250647 +to 0.000250647
Heightened Def Con from 0.000250647 +to 0.000250647
Heightened Def Con from 0.000250647 ++to 0.000250647
Heightened Def Con from 0.000250647 ++to 0.000250647
Heightened Def Con from 0.000250647 +to 0.000250647
Heightened Def Con from 0.000250647 +to 0.000250647
Heightened Def Con from 0.000250647 ++to 0.000250647
Heightened Def Con from 0.000250647 +to 0.000250647
Heightened Def Con from 0.000250647 +to 0.000250647
Heightened Def Con from 0.000250647 ++to 0.000250647
Heightened Def Con from 0.000250647 +++to 0.000250647
Heightened Def Con from 0.000250647 +to 0.000250647
Heightened Def Con from 0.000250647 +to 0.000250647
Heightened Def Con from 0.000250647 +to 0.000250647
Heightened Def Con from 0.000250647 +to 0.000250647
Heightened Def Con from 0.000250647 +to 0.000250647
Heightened Def Con from 0.000250647 +to 0.000250647
Heightened Def Con from 0.000250647 +++to 0.000250647
Heightened Def Con from 0.000250647 ++to 0.000250647
Heightened Def Con from 0.000250647 +++to 0.000250647
Heightened Def Con from 0.000250647 +to 0.000250647
Heightened Def Con from 0.000250647 ++to 0.000250647
Heightened Def Con from 0.000250647 +++++++++++++++++++to 0.000250648
Heightened Def Con from 0.000250648 +++++++++++to 0.000250648
Heightened Def Con from 0.000250648 ++++++++to 0.000250649
Heightened Def Con from 0.000250649 ++++++to 0.000250649
Heightened Def Con from 0.000250649 ++++++to 0.000250649
Heightened Def Con from 0.000250649 ++++++to 0.000250649
Heightened Def Con from 0.000250649 ++++++to 0.000250649
Heightened Def Con from 0.000250649 ++++++to 0.000250649
Heightened Def Con from 0.000300718 +to 0.000300718
Heightened Def Con from 0.000300718 to 0.000300718
Heightened Def Con from 0.000300718 to 0.000300718
Heightened Def Con from 0.000300718 +to 0.000300718
Heightened Def Con from 0.000300718 to 0.000300718
Heightened Def Con from 0.000300718 +to 0.000300718
Heightened Def Con from 0.000300718 +to 0.000300718
Heightened Def Con from 0.000300718 to 0.000300718
Heightened Def Con from 0.000300718 to 0.000300718
Heightened Def Con from 0.000300718 to 0.000300718
Heightened Def Con from 0.000300718 to 0.000300718
Heightened Def Con from 0.000300718 to 0.000300718
Heightened Def Con from 0.000300718 to 0.000300718
Heightened Def Con from 0.000300718 to 0.000300718
Heightened Def Con from 0.000300718 to 0.000300718
Heightened Def Con from 0.000300718 to 0.000300718
Heightened Def Con from 0.000300718 +++++++++++++++++++to 0.000300719
Heightened Def Con from 0.000300719 +++++++++++to 0.00030072
Heightened Def Con from 0.00030072 +++++++++++to 0.000300721
Heightened Def Con from 0.000300721 +++++++++++to 0.000300722
Heightened Def Con from 0.000300722 +++++++++++to 0.000300723
Heightened Def Con from 0.000300723 +++++++++++to 0.000300723
Heightened Def Con from 0.000350646 to 0.000350646
Heightened Def Con from 0.000350646 to 0.000350646
Heightened Def Con from 0.000350646 to 0.000350646
Heightened Def Con from 0.000350646 to 0.000350646
Heightened Def Con from 0.000350646 to 0.000350646
Heightened Def Con from 0.000350646 to 0.000350646
Heightened Def Con from 0.000350646 to 0.000350646
Heightened Def Con from 0.000350646 +++++++++++++++++++to 0.000350647
Heightened Def Con from 0.000350647 +++++++++++to 0.000350649
Heightened Def Con from 0.000350649 ++++++++to 0.000350649
Heightened Def Con from 0.000350649 +++++++to 0.000350649
Heightened Def Con from 0.000350649 +++++++to 0.000350649
Heightened Def Con from 0.000350649 +++++++to 0.000350649
Heightened Def Con from 0.000400715 to 0.000400715
Heightened Def Con from 0.000400715 +to 0.000400715
Heightened Def Con from 0.000400715 +++++++++++++++++++to 0.000400717
Heightened Def Con from 0.000400717 +++++++++++to 0.000400718
Heightened Def Con from 0.000400718 +++++++++++to 0.000400719
Heightened Def Con from 0.000400719 +++++++++++to 0.00040072
Heightened Def Con from 0.000450646 to 0.000450646
Heightened Def Con from 0.000450646 to 0.000450646
Heightened Def Con from 0.000450646 to 0.000450646
Heightened Def Con from 0.000450646 to 0.000450646
Heightened Def Con from 0.000450646 to 0.000450646
Heightened Def Con from 0.000450646 to 0.000450646
Heightened Def Con from 0.000450646 to 0.000450646
Heightened Def Con from 0.000450646 to 0.000450646
Heightened Def Con from 0.000450646 +to 0.000450646
Heightened Def Con from 0.000450646 to 0.000450646
Heightened Def Con from 0.000450646 to 0.000450646
Heightened Def Con from 0.000450646 to 0.000450646
Heightened Def Con from 0.000450646 to 0.000450646
Heightened Def Con from 0.000450646 to 0.000450646
Heightened Def Con from 0.000450646 to 0.000450646
Heightened Def Con from 0.000450646 to 0.000450646
Heightened Def Con from 0.000450646 to 0.000450646
Heightened Def Con from 0.000450646 to 0.000450646
Heightened Def Con from 0.000450646 to 0.000450646
Heightened Def Con from 0.000450646 to 0.000450646
Heightened Def Con from 0.000450646 to 0.000450646
Heightened Def Con from 0.000450646 to 0.000450646
Heightened Def Con from 0.000450646 +to 0.000450646
Heightened Def Con from 0.000450646 to 0.000450646
Heightened Def Con from 0.000450646 to 0.000450646
Heightened Def Con from 0.000450646 to 0.000450646
Heightened Def Con from 0.000450646 to 0.000450646
Heightened Def Con from 0.000450646 +++++++++++++++++++to 0.000450647
Heightened Def Con from 0.000450647 ++++++++++++to 0.000450648
Heightened Def Con from 0.000450648 +++++++++to 0.000450649
Heightened Def Con from 0.000450649 +++++++++to 0.000450649
Heightened Def Con from 0.000450649 +++++++++to 0.000450649
Heightened Def Con from 0.000450649 +++++++++to 0.000450649
Heightened Def Con from 0.000450649 +++++++++to 0.000450649
Heightened Def Con from 0.000450649 +++++++++to 0.000450649
Heightened Def Con from 0.000450649 +++++++++to 0.000450649
Heightened Def Con from 0.000450649 +++++++++to 0.000450649
Heightened Def Con from 0.000450649 +++++++++to 0.000450649
Heightened Def Con from 0.000450649 +++++++++to 0.000450649
Heightened Def Con from 0.000450649 +++++++++to 0.000450649
Heightened Def Con from 0.000450649 +++++++++to 0.000450649
Heightened Def Con from 0.000450649 +++++++++to 0.000450649
Heightened Def Con from 0.000500715 +to 0.000500715
Heightened Def Con from 0.000500715 to 0.000500715
Heightened Def Con from 0.000500715 to 0.000500715
Heightened Def Con from 0.000500715 to 0.000500715
Heightened Def Con from 0.000500715 +to 0.000500715
Heightened Def Con from 0.000500715 +to 0.000500715
Heightened Def Con from 0.000500715 +++++++++++++++++++to 0.000500717
Heightened Def Con from 0.000500717 ++++++++++to 0.000500718
Heightened Def Con from 0.000500718 ++++++++++to 0.000500718
Heightened Def Con from 0.000500718 ++++++++++to 0.000500718
Heightened Def Con from 0.000500718 ++++++++++to 0.000500718
Heightened Def Con from 0.000500718 ++++++++++to 0.000500718
Heightened Def Con from 0.000500718 ++++++++++to 0.000500718
Heightened Def Con from 0.000550646 to 0.000550646
Heightened Def Con from 0.000550646 to 0.000550646
Heightened Def Con from 0.000550646 to 0.000550646
Heightened Def Con from 0.000550646 to 0.000550646
Heightened Def Con from 0.000550646 to 0.000550646
Heightened Def Con from 0.000550646 to 0.000550646
Heightened Def Con from 0.000550646 to 0.000550646
Heightened Def Con from 0.000550646 to 0.000550646
Heightened Def Con from 0.000550646 +++++++++++++++++++to 0.000550647
Heightened Def Con from 0.000550647 +++++++++++to 0.000550649
Heightened Def Con from 0.000550649 ++++++++to 0.000550649
Heightened Def Con from 0.000550649 +++++++to 0.000550649
Heightened Def Con from 0.000550649 +++++++to 0.000550649
Heightened Def Con from 0.000550649 +++++++to 0.000550649
Heightened Def Con from 0.000550649 +++++++to 0.000550649
Heightened Def Con from 0.000600716 +to 0.000600716
Heightened Def Con from 0.000600716 to 0.000600716
Heightened Def Con from 0.000600716 to 0.000600716
Heightened Def Con from 0.000600716 to 0.000600716
Heightened Def Con from 0.000600716 to 0.000600716
Heightened Def Con from 0.000600716 to 0.000600716
Heightened Def Con from 0.000600716 to 0.000600716
Heightened Def Con from 0.000600716 to 0.000600716
Heightened Def Con from 0.000600716 +to 0.000600716
Heightened Def Con from 0.000600716 to 0.000600716
Heightened Def Con from 0.000600716 to 0.000600716
Heightened Def Con from 0.000600716 to 0.000600716
Heightened Def Con from 0.000600716 to 0.000600716
Heightened Def Con from 0.000600716 +to 0.000600716
Heightened Def Con from 0.000600716 to 0.000600716
Heightened Def Con from 0.000600716 to 0.000600716
Heightened Def Con from 0.000600716 to 0.000600716
Heightened Def Con from 0.000600716 to 0.000600716
Heightened Def Con from 0.000600716 to 0.000600716
Heightened Def Con from 0.000600716 to 0.000600716
Heightened Def Con from 0.000600716 to 0.000600716
Heightened Def Con from 0.000600716 +to 0.000600716
Heightened Def Con from 0.000600716 to 0.000600716
Heightened Def Con from 0.000600716 +to 0.000600716
Heightened Def Con from 0.000600716 to 0.000600716
Heightened Def Con from 0.000600716 to 0.000600716
Heightened Def Con from 0.000600716 to 0.000600716
Heightened Def Con from 0.000600716 +++++++++++++++++++to 0.000600717
Heightened Def Con from 0.000600717 +++++++++++to 0.000600718
Heightened Def Con from 0.000600718 +++++++++++to 0.000600719
Heightened Def Con from 0.000600719 +++++++++++to 0.000600721
Heightened Def Con from 0.000600721 +++++++++++to 0.000600721
Heightened Def Con from 0.000600721 +++++++++++to 0.000600721
Heightened Def Con from 0.000600721 +++++++++++to 0.000600721
Heightened Def Con from 0.000600721 +++++++++++to 0.000600721
Heightened Def Con from 0.000600721 +++++++++++to 0.000600724
Heightened Def Con from 0.000650646 to 0.000650646
Heightened Def Con from 0.000650646 to 0.000650646
Heightened Def Con from 0.000650646 to 0.000650646
Heightened Def Con from 0.000650646 to 0.000650646
Heightened Def Con from 0.000650646 +to 0.000650646
Heightened Def Con from 0.000650646 to 0.000650646
Heightened Def Con from 0.000650646 to 0.000650646
Heightened Def Con from 0.000650646 to 0.000650646
Heightened Def Con from 0.000650646 to 0.000650646
Heightened Def Con from 0.000650646 +to 0.000650646
Heightened Def Con from 0.000650646 to 0.000650646
Heightened Def Con from 0.000650646 to 0.000650646
Heightened Def Con from 0.000650646 to 0.000650646
Heightened Def Con from 0.000650646 to 0.000650646
Heightened Def Con from 0.000650646 to 0.000650646
Heightened Def Con from 0.000650646 to 0.000650646
Heightened Def Con from 0.000650646 to 0.000650646
Heightened Def Con from 0.000650646 to 0.000650646
Heightened Def Con from 0.000650646 to 0.000650646
Heightened Def Con from 0.000650646 to 0.000650646
Heightened Def Con from 0.000650646 to 0.000650646
Heightened Def Con from 0.000650646 +to 0.000650646
Heightened Def Con from 0.000650646 +++++++++++++++++++to 0.000650648
Heightened Def Con from 0.000650648 ++++++++++to 0.000650648
Heightened Def Con from 0.000650648 +++++++++++++++++++to 0.000650649
Heightened Def Con from 0.000650649 +++++++++++to 0.00065065
Heightened Def Con from 0.00065065 ++++++++to 0.00065065
Heightened Def Con from 0.00065065 +++++to 0.00065065
Heightened Def Con from 0.00065065 +++++to 0.00065065
Heightened Def Con from 0.00065065 +++to 0.00065065
Heightened Def Con from 0.00065065 ++++to 0.00065065
Heightened Def Con from 0.00065065 ++to 0.00065065
Heightened Def Con from 0.00065065 +to 0.00065065
Heightened Def Con from 0.00065065 +to 0.00065065
Heightened Def Con from 0.00065065 +to 0.00065065
Heightened Def Con from 0.00065065 +++to 0.00065065
Heightened Def Con from 0.00065065 +++to 0.00065065
Heightened Def Con from 0.00065065 ++++to 0.00065065
Heightened Def Con from 0.00065065 ++++to 0.00065065
Heightened Def Con from 0.00065065 +++to 0.00065065
Heightened Def Con from 0.00065065 ++to 0.00065065
Heightened Def Con from 0.00065065 ++to 0.00065065
Heightened Def Con from 0.00065065 ++to 0.00065065
Heightened Def Con from 0.00065065 ++to 0.00065065
Heightened Def Con from 0.00065065 ++to 0.00065065
Heightened Def Con from 0.00065065 ++to 0.00065065
Heightened Def Con from 0.00065065 ++to 0.00065065
Heightened Def Con from 0.00065065 ++to 0.00065065
Heightened Def Con from 0.00065065 +++to 0.00065065
Heightened Def Con from 0.00065065 +++to 0.00065065
Heightened Def Con from 0.00065065 +++to 0.00065065
Heightened Def Con from 0.00065065 ++to 0.00065065
Heightened Def Con from 0.00065065 ++to 0.00065065
Heightened Def Con from 0.00065065 ++to 0.00065065
Heightened Def Con from 0.00065065 ++to 0.00065065
Heightened Def Con from 0.00065065 +++to 0.00065065
Heightened Def Con from 0.00065065 ++to 0.00065065
Heightened Def Con from 0.00065065 +++to 0.00065065
Heightened Def Con from 0.00065065 ++to 0.00065065
Heightened Def Con from 0.00065065 +++to 0.00065065
Heightened Def Con from 0.00065065 ++to 0.00065065
Heightened Def Con from 0.00065065 ++to 0.00065065
Heightened Def Con from 0.00065065 ++to 0.00065065
Heightened Def Con from 0.00065065 ++to 0.00065065
Heightened Def Con from 0.00065065 ++to 0.00065065
Heightened Def Con from 0.00065065 ++to 0.00065065
Heightened Def Con from 0.00065065 ++to 0.00065065
Heightened Def Con from 0.00065065 +++to 0.00065065
Heightened Def Con from 0.00065065 ++to 0.00065065
Heightened Def Con from 0.00065065 ++to 0.00065065
Heightened Def Con from 0.00065065 +++to 0.00065065
Heightened Def Con from 0.00065065 +++to 0.00065065
Heightened Def Con from 0.00065065 ++to 0.00065065
Heightened Def Con from 0.00065065 ++to 0.00065065
Heightened Def Con from 0.00065065 ++to 0.00065065
Heightened Def Con from 0.00065065 ++to 0.00065065
Heightened Def Con from 0.00065065 ++to 0.00065065
Heightened Def Con from 0.00065065 ++to 0.00065065
Heightened Def Con from 0.00065065 ++to 0.00065065
Heightened Def Con from 0.00065065 +++to 0.00065065
Heightened Def Con from 0.00065065 ++to 0.00065065
Heightened Def Con from 0.00065065 ++to 0.00065065
Heightened Def Con from 0.00065065 ++to 0.00065065
Heightened Def Con from 0.00065065 ++to 0.00065065
Heightened Def Con from 0.00065065 ++to 0.00065065
Heightened Def Con from 0.00065065 ++to 0.00065065
Heightened Def Con from 0.00065065 ++to 0.00065065
Heightened Def Con from 0.00065065 ++to 0.00065065
Heightened Def Con from 0.00065065 ++to 0.00065065
Heightened Def Con from 0.00065065 ++to 0.00065065
Heightened Def Con from 0.00065065 ++to 0.00065065
Heightened Def Con from 0.00065065 +++to 0.00065065
Heightened Def Con from 0.00065065 +++to 0.00065065
Heightened Def Con from 0.00065065 ++to 0.00065065
Heightened Def Con from 0.00065065 ++to 0.00065065
Heightened Def Con from 0.00065065 ++to 0.00065065
Heightened Def Con from 0.00065065 +++to 0.00065065
Heightened Def Con from 0.00065065 +++to 0.00065065
Heightened Def Con from 0.00065065 ++to 0.00065065
Heightened Def Con from 0.00065065 ++to 0.00065065
Heightened Def Con from 0.00065065 +++to 0.00065065
Heightened Def Con from 0.00065065 +++to 0.00065065
Heightened Def Con from 0.00065065 +++to 0.00065065
Heightened Def Con from 0.00065065 +++to 0.00065065
Heightened Def Con from 0.00065065 ++to 0.00065065
Heightened Def Con from 0.00065065 ++to 0.00065065
Heightened Def Con from 0.00065065 ++to 0.00065065
Heightened Def Con from 0.00065065 ++to 0.00065065
Heightened Def Con from 0.00065065 ++to 0.00065065
Heightened Def Con from 0.00065065 ++to 0.00065065
Heightened Def Con from 0.00065065 ++to 0.00065065
Heightened Def Con from 0.00065065 ++to 0.00065065
Heightened Def Con from 0.00065065 ++to 0.00065065
Heightened Def Con from 0.00065065 ++to 0.00065065
Heightened Def Con from 0.00065065 ++to 0.00065065
Heightened Def Con from 0.00065065 ++to 0.00065065
Heightened Def Con from 0.00065065 ++to 0.00065065
Heightened Def Con from 0.00065065 ++to 0.00065065
Heightened Def Con from 0.00065065 ++to 0.00065065
Heightened Def Con from 0.00065065 ++to 0.00065065
Heightened Def Con from 0.00065065 ++to 0.00065065
Heightened Def Con from 0.00065065 ++to 0.00065065
Heightened Def Con from 0.00065065 ++to 0.00065065
Heightened Def Con from 0.00065065 +++to 0.00065065
Heightened Def Con from 0.00065065 +++to 0.00065065
Heightened Def Con from 0.00065065 +++to 0.00065065
Heightened Def Con from 0.00065065 +++to 0.00065065
Heightened Def Con from 0.00065065 +++to 0.00065065
Heightened Def Con from 0.00065065 ++to 0.00065065
Heightened Def Con from 0.00065065 ++++to 0.00065065
Heightened Def Con from 0.00065065 ++++to 0.00065065
Heightened Def Con from 0.00065065 ++++to 0.00065065
Heightened Def Con from 0.000700715 to 0.000700715
Heightened Def Con from 0.000700715 to 0.000700715
Heightened Def Con from 0.000700715 to 0.000700715
Heightened Def Con from 0.000700715 to 0.000700715
Heightened Def Con from 0.000700715 +++++++++++++++++++to 0.000700716
Heightened Def Con from 0.000700716 ++++++++++to 0.000700717
Heightened Def Con from 0.000700717 ++++++++++to 0.000700717
Heightened Def Con from 0.000700717 ++++++++++to 0.000700717
Heightened Def Con from 0.000700717 ++++++++++to 0.000700717
Heightened Def Con from 0.000700717 ++++++++++to 0.000700717
Heightened Def Con from 0.000700717 ++++++++++to 0.000700717
Heightened Def Con from 0.000750649 to 0.000750649
Heightened Def Con from 0.000750649 to 0.000750649
Heightened Def Con from 0.000750649 to 0.000750649
Heightened Def Con from 0.000750649 to 0.000750649
Heightened Def Con from 0.000750649 +to 0.000750649
Heightened Def Con from 0.000750649 to 0.000750649
Heightened Def Con from 0.000750649 to 0.000750649
Heightened Def Con from 0.000750649 +to 0.000750649
Heightened Def Con from 0.000750649 to 0.000750649
Heightened Def Con from 0.000750649 +++++++++++++++++++to 0.00075065
Heightened Def Con from 0.00075065 +++++++++++to 0.000750651
Heightened Def Con from 0.000750651 ++++++++to 0.000750651
Heightened Def Con from 0.000750651 +++++++to 0.000750651
Heightened Def Con from 0.000750651 +++++++to 0.000750651
Heightened Def Con from 0.000750651 +++++++to 0.000750651
Heightened Def Con from 0.000750651 +++++++to 0.000750651
Heightened Def Con from 0.000750651 +++++++to 0.000750651
Heightened Def Con from 0.000750651 +++++++to 0.000750651
Heightened Def Con from 0.000750651 +++++++to 0.000750651
Heightened Def Con from 0.000750651 +++++++to 0.000750651
Heightened Def Con from 0.000750651 +++++++to 0.000750651
Heightened Def Con from 0.000750651 +++++++to 0.000750651
Heightened Def Con from 0.000750651 +++++++to 0.000750651
Heightened Def Con from 0.000750651 +++++++to 0.000750651
Heightened Def Con from 0.000750651 +++++++to 0.000750651
Heightened Def Con from 0.000800714 to 0.000800714
Heightened Def Con from 0.000800714 to 0.000800714
Heightened Def Con from 0.000800714 to 0.000800714
Heightened Def Con from 0.000800714 to 0.000800714
Heightened Def Con from 0.000800714 to 0.000800714
Heightened Def Con from 0.000800714 to 0.000800714
Heightened Def Con from 0.000800714 to 0.000800714
Heightened Def Con from 0.000800714 to 0.000800714
Heightened Def Con from 0.000800714 to 0.000800714
Heightened Def Con from 0.000800714 to 0.000800714
Heightened Def Con from 0.000800714 +to 0.000800714
Heightened Def Con from 0.000800714 to 0.000800714
Heightened Def Con from 0.000800714 +++++++++++++++++++to 0.000800715
Heightened Def Con from 0.000800715 +++++++++++to 0.000800716
Heightened Def Con from 0.000800716 +++++++++++to 0.000800717
Heightened Def Con from 0.000800717 +++++++++++to 0.000800718
Heightened Def Con from 0.000800718 +++++++++++to 0.000800719
Heightened Def Con from 0.000800719 +++++++++++to 0.000800719
Heightened Def Con from 0.000800719 +++++++++++to 0.000800719
Heightened Def Con from 0.000800719 +++++++++++to 0.000800719
Heightened Def Con from 0.000800719 +++++++++++to 0.000800722
Heightened Def Con from 0.000850647 to 0.000850647
Heightened Def Con from 0.000850647 +++++++++++++++++++to 0.000850648
Heightened Def Con from 0.000850648 +++++++++++to 0.00085065
Heightened Def Con from 0.00085065 ++++++++to 0.00085065
Heightened Def Con from 0.00085065 +++++++to 0.00085065
Heightened Def Con from 0.00085065 +++++++to 0.00085065
Heightened Def Con from 0.00085065 +++++++to 0.00085065
Heightened Def Con from 0.000900714 to 0.000900714
Heightened Def Con from 0.000900714 to 0.000900714
Heightened Def Con from 0.000900714 +to 0.000900714
Heightened Def Con from 0.000900714 +to 0.000900714
Heightened Def Con from 0.000900714 to 0.000900714
Heightened Def Con from 0.000900714 +++++++++++++++++++to 0.000900715
Heightened Def Con from 0.000900715 +++++++++++to 0.000900716
Heightened Def Con from 0.000900716 +++++++++++to 0.000900717
Heightened Def Con from 0.000900717 +++++++++++to 0.000900718
Heightened Def Con from 0.000900718 +++++++++++to 0.000900718
Heightened Def Con from 0.000900718 +++++++++++to 0.000900719
Heightened Def Con from 0.000900719 +++++++++++to 0.000900719
Heightened Def Con from 0.000900719 +++++++++++to 0.000900719
Heightened Def Con from 0.000900719 +++++++++++to 0.000900722
Heightened Def Con from 0.000950648 to 0.000950648
Heightened Def Con from 0.000950648 to 0.000950648
Heightened Def Con from 0.000950648 to 0.000950648
Heightened Def Con from 0.000950648 to 0.000950648
Heightened Def Con from 0.000950648 to 0.000950648
Heightened Def Con from 0.000950648 to 0.000950648
Heightened Def Con from 0.000950648 to 0.000950648
Heightened Def Con from 0.000950648 to 0.000950648
Heightened Def Con from 0.000950648 to 0.000950648
Heightened Def Con from 0.000950648 to 0.000950648
Heightened Def Con from 0.000950648 to 0.000950648
Heightened Def Con from 0.000950648 to 0.000950648
Heightened Def Con from 0.000950648 to 0.000950648
Heightened Def Con from 0.000950648 to 0.000950648
Heightened Def Con from 0.000950648 to 0.000950648
Heightened Def Con from 0.000950648 to 0.000950648
Heightened Def Con from 0.000950648 to 0.000950648
Heightened Def Con from 0.000950648 to 0.000950648
Heightened Def Con from 0.000950648 to 0.000950648
Heightened Def Con from 0.000950648 to 0.000950648
Heightened Def Con from 0.000950648 to 0.000950648
Heightened Def Con from 0.000950648 to 0.000950648
Heightened Def Con from 0.000950648 to 0.000950648
Heightened Def Con from 0.000950648 to 0.000950648
Heightened Def Con from 0.000950648 to 0.000950648
Heightened Def Con from 0.000950648 to 0.000950648
Heightened Def Con from 0.000950648 to 0.000950648
Heightened Def Con from 0.000950648 to 0.000950648
Heightened Def Con from 0.000950648 to 0.000950648
Heightened Def Con from 0.000950648 to 0.000950648
Heightened Def Con from 0.000950648 to 0.000950648
Heightened Def Con from 0.000950648 to 0.000950648
Heightened Def Con from 0.000950648 to 0.000950648
Heightened Def Con from 0.000950648 +to 0.000950648
Heightened Def Con from 0.000950648 +++++++++++++++++++to 0.000950649
Heightened Def Con from 0.000950649 ++++++++++++to 0.000950649
Heightened Def Con from 0.000950649 ++++++++to 0.00095065
Heightened Def Con from 0.00095065 +++++++to 0.000950651
Heightened Def Con from 0.000950651 +++++++to 0.000950651
Heightened Def Con from 0.000950651 +++++++to 0.000950651
Heightened Def Con from 0.000950651 +++++++to 0.000950651
Heightened Def Con from 0.000950651 +++++++to 0.000950651
Heightened Def Con from 0.000950651 +++++++to 0.000950651
Heightened Def Con from 0.00100071 to 0.00100071
Heightened Def Con from 0.00100071 to 0.00100071
Heightened Def Con from 0.00100071 to 0.00100071
Heightened Def Con from 0.00100071 to 0.00100071
Heightened Def Con from 0.00100071 to 0.00100071
Heightened Def Con from 0.00100071 to 0.00100071
Heightened Def Con from 0.00100071 to 0.00100071
Heightened Def Con from 0.00100071 to 0.00100071
Heightened Def Con from 0.00100071 +to 0.00100071
Heightened Def Con from 0.00100071 to 0.00100071
Heightened Def Con from 0.00100071 to 0.00100071
Heightened Def Con from 0.00100071 to 0.00100071
Heightened Def Con from 0.00100071 to 0.00100071
Heightened Def Con from 0.00100071 to 0.00100071
Heightened Def Con from 0.00100071 to 0.00100071
Heightened Def Con from 0.00100071 to 0.00100071
Heightened Def Con from 0.00100071 +++++++++++++++++++to 0.00100071
Heightened Def Con from 0.00100071 +++++++++++to 0.00100072
Heightened Def Con from 0.00100072 +++++++++++to 0.00100072
Heightened Def Con from 0.00100072 +++++++++++to 0.00100072
Heightened Def Con from 0.00100072 +++++++++++to 0.00100072
Heightened Def Con from 0.00100072 +++++++++++to 0.00100072
Heightened Def Con from 0.00100072 +++++++++++to 0.00100072
Heightened Def Con from 0.00100072 +++++++++++to 0.00100072
Heightened Def Con from 0.00100072 +++++++++++to 0.00100072
Heightened Def Con from 0.00105065 to 0.00105065
Heightened Def Con from 0.00105065 +++++++++++++++++++to 0.00105065
Heightened Def Con from 0.00105065 +++++++++++to 0.00105065
Heightened Def Con from 0.00105065 ++++++++to 0.00105065
Heightened Def Con from 0.00105065 +++++++to 0.00105065
Heightened Def Con from 0.00105065 +++++++to 0.00105065
Heightened Def Con from 0.00105065 +++++++to 0.00105065
Heightened Def Con from 0.00110071 to 0.00110071
Heightened Def Con from 0.00110071 to 0.00110071
Heightened Def Con from 0.00110071 to 0.00110071
Heightened Def Con from 0.00110071 to 0.00110071
Heightened Def Con from 0.00110071 to 0.00110071
Heightened Def Con from 0.00110071 to 0.00110071
Heightened Def Con from 0.00110071 to 0.00110071
Heightened Def Con from 0.00110071 +to 0.00110071
Heightened Def Con from 0.00110071 to 0.00110071
Heightened Def Con from 0.00110071 to 0.00110071
Heightened Def Con from 0.00110071 +to 0.00110071
Heightened Def Con from 0.00110071 +++++++++++++++++++to 0.00110071
Heightened Def Con from 0.00110071 ++++++++++to 0.00110071
Heightened Def Con from 0.00110071 ++++++++++to 0.00110071
Heightened Def Con from 0.00110071 ++++++++++to 0.00110071
Heightened Def Con from 0.00115065 to 0.00115065
Heightened Def Con from 0.00115065 to 0.00115065
Heightened Def Con from 0.00115065 to 0.00115065
Heightened Def Con from 0.00115065 to 0.00115065
Heightened Def Con from 0.00115065 to 0.00115065
Heightened Def Con from 0.00115065 to 0.00115065
Heightened Def Con from 0.00115065 to 0.00115065
Heightened Def Con from 0.00115065 +to 0.00115065
Heightened Def Con from 0.00115065 to 0.00115065
Heightened Def Con from 0.00115065 to 0.00115065
Heightened Def Con from 0.00115065 to 0.00115065
Heightened Def Con from 0.00115065 to 0.00115065
Heightened Def Con from 0.00115065 +to 0.00115065
Heightened Def Con from 0.00115065 +to 0.00115065
Heightened Def Con from 0.00115065 to 0.00115065
Heightened Def Con from 0.00115065 +++++++++++++++++++to 0.00115065
Heightened Def Con from 0.00115065 ++++++++++++to 0.00115065
Heightened Def Con from 0.00115065 +++++++++to 0.00115065
Heightened Def Con from 0.00115065 +++++++to 0.00115065
Heightened Def Con from 0.00115065 +++++++to 0.00115065
Heightened Def Con from 0.00120071 to 0.00120071
Heightened Def Con from 0.00120071 to 0.00120071
Heightened Def Con from 0.00120071 to 0.00120071
Heightened Def Con from 0.00120071 to 0.00120071
Heightened Def Con from 0.00120071 to 0.00120071
Heightened Def Con from 0.00120071 to 0.00120071
Heightened Def Con from 0.00120071 to 0.00120071
Heightened Def Con from 0.00120071 +to 0.00120071
Heightened Def Con from 0.00120071 to 0.00120071
Heightened Def Con from 0.00120071 to 0.00120071
Heightened Def Con from 0.00120071 to 0.00120071
Heightened Def Con from 0.00120071 to 0.00120071
Heightened Def Con from 0.00120071 +to 0.00120071
Heightened Def Con from 0.00120071 +to 0.00120071
Heightened Def Con from 0.00120071 to 0.00120071
Heightened Def Con from 0.00120071 to 0.00120071
Heightened Def Con from 0.00120071 to 0.00120071
Heightened Def Con from 0.00120071 to 0.00120071
Heightened Def Con from 0.00120071 to 0.00120071
Heightened Def Con from 0.00120071 to 0.00120071
Heightened Def Con from 0.00120071 +to 0.00120071
Heightened Def Con from 0.00120071 +++++++++++++++++++to 0.00120071
Heightened Def Con from 0.00120071 ++++++++++to 0.00120071
Heightened Def Con from 0.00120071 ++++++++++to 0.00120071
Heightened Def Con from 0.00120071 ++++++++++to 0.00120071
Heightened Def Con from 0.00125065 to 0.00125065
Heightened Def Con from 0.00125065 to 0.00125065
Heightened Def Con from 0.00125065 to 0.00125065
Heightened Def Con from 0.00125065 to 0.00125065
Heightened Def Con from 0.00125065 +to 0.00125065
Heightened Def Con from 0.00125065 to 0.00125065
Heightened Def Con from 0.00125065 to 0.00125065
Heightened Def Con from 0.00125065 to 0.00125065
Heightened Def Con from 0.00125065 +to 0.00125065
Heightened Def Con from 0.00125065 to 0.00125065
Heightened Def Con from 0.00125065 to 0.00125065
Heightened Def Con from 0.00125065 to 0.00125065
Heightened Def Con from 0.00125065 to 0.00125065
Heightened Def Con from 0.00125065 to 0.00125065
Heightened Def Con from 0.00125065 to 0.00125065
Heightened Def Con from 0.00125065 to 0.00125065
Heightened Def Con from 0.00125065 to 0.00125065
Heightened Def Con from 0.00125065 +to 0.00125065
Heightened Def Con from 0.00125065 to 0.00125065
Heightened Def Con from 0.00125065 to 0.00125065
Heightened Def Con from 0.00125065 to 0.00125065
Heightened Def Con from 0.00125065 to 0.00125065
Heightened Def Con from 0.00125065 +to 0.00125065
Heightened Def Con from 0.00125065 to 0.00125065
Heightened Def Con from 0.00125065 to 0.00125065
Heightened Def Con from 0.00125065 +to 0.00125065
Heightened Def Con from 0.00125065 +to 0.00125065
Heightened Def Con from 0.00125065 +++++++++++++++++++to 0.00125065
Heightened Def Con from 0.00125065 +++++++++++to 0.00125065
Heightened Def Con from 0.00125065 +++++++to 0.00125065
Heightened Def Con from 0.00125065 +++++++to 0.00125065
Heightened Def Con from 0.00125065 +++++++to 0.00125065
Heightened Def Con from 0.00125065 +++++++to 0.00125065
Heightened Def Con from 0.00125065 +++++++to 0.00125065
Heightened Def Con from 0.00130071 to 0.00130071
Heightened Def Con from 0.00130071 to 0.00130071
Heightened Def Con from 0.00130071 to 0.00130071
Heightened Def Con from 0.00130071 to 0.00130071
Heightened Def Con from 0.00130071 to 0.00130071
Heightened Def Con from 0.00130071 to 0.00130071
Heightened Def Con from 0.00130071 +to 0.00130071
Heightened Def Con from 0.00130071 to 0.00130071
Heightened Def Con from 0.00130071 to 0.00130071
Heightened Def Con from 0.00130071 to 0.00130071
Heightened Def Con from 0.00130071 +to 0.00130071
Heightened Def Con from 0.00130071 +to 0.00130071
Heightened Def Con from 0.00130071 +to 0.00130071
Heightened Def Con from 0.00130071 +++++++++++++++++++to 0.00130071
Heightened Def Con from 0.00130071 +++++++++++to 0.00130071
Heightened Def Con from 0.00130071 +++++++++++to 0.00130071
Heightened Def Con from 0.00130071 +++++++++++to 0.00130072
Heightened Def Con from 0.00130072 +++++++++++to 0.00130072
Heightened Def Con from 0.00130072 +++++++++++to 0.00130072
Heightened Def Con from 0.00130072 +++++++++++to 0.00130072
Heightened Def Con from 0.00130072 +++++++++++to 0.00130072
Heightened Def Con from 0.00130072 +++++++++++to 0.00130072
Heightened Def Con from 0.00135065 to 0.00135065
Heightened Def Con from 0.00135065 to 0.00135065
Heightened Def Con from 0.00135065 to 0.00135065
Heightened Def Con from 0.00135065 +to 0.00135065
Heightened Def Con from 0.00135065 +to 0.00135065
Heightened Def Con from 0.00135065 to 0.00135065
Heightened Def Con from 0.00135065 +++++++++++++++++++to 0.00135065
Heightened Def Con from 0.00135065 +++++++++++to 0.00135065
Heightened Def Con from 0.00135065 ++++++++to 0.00135065
Heightened Def Con from 0.00135065 +++++++to 0.00135065
Heightened Def Con from 0.00135065 +++++++to 0.00135065
Heightened Def Con from 0.00140071 to 0.00140071
Heightened Def Con from 0.00140071 to 0.00140071
Heightened Def Con from 0.00140071 to 0.00140071
Heightened Def Con from 0.00140071 +to 0.00140071
Heightened Def Con from 0.00140071 to 0.00140071
Heightened Def Con from 0.00140071 to 0.00140071
Heightened Def Con from 0.00140071 to 0.00140071
Heightened Def Con from 0.00140071 to 0.00140071
Heightened Def Con from 0.00140071 to 0.00140071
Heightened Def Con from 0.00140071 to 0.00140071
Heightened Def Con from 0.00140071 to 0.00140071
Heightened Def Con from 0.00140071 +++++++++++++++++++to 0.00140071
Heightened Def Con from 0.00140071 +++++++++++to 0.00140071
Heightened Def Con from 0.00140071 +++++++++++to 0.00140071
Heightened Def Con from 0.00140071 +++++++++++to 0.00140072
Heightened Def Con from 0.00140072 +++++++++++to 0.00140072
Heightened Def Con from 0.00140072 +++++++++++to 0.00140072
Heightened Def Con from 0.00145065 to 0.00145065
Heightened Def Con from 0.00145065 to 0.00145065
Heightened Def Con from 0.00145065 to 0.00145065
Heightened Def Con from 0.00145065 to 0.00145065
Heightened Def Con from 0.00145065 +to 0.00145065
Heightened Def Con from 0.00145065 to 0.00145065
Heightened Def Con from 0.00145065 to 0.00145065
Heightened Def Con from 0.00145065 to 0.00145065
Heightened Def Con from 0.00145065 to 0.00145065
Heightened Def Con from 0.00145065 to 0.00145065
Heightened Def Con from 0.00145065 to 0.00145065
Heightened Def Con from 0.00145065 to 0.00145065
Heightened Def Con from 0.00145065 to 0.00145065
Heightened Def Con from 0.00145065 to 0.00145065
Heightened Def Con from 0.00145065 +++++++++++++++++++to 0.00145065
Heightened Def Con from 0.00145065 +++++++++++to 0.00145065
Heightened Def Con from 0.00145065 ++++++++to 0.00145065
Heightened Def Con from 0.00145065 +++++++to 0.00145065
Heightened Def Con from 0.00145065 +++++++to 0.00145065
Heightened Def Con from 0.00145065 +++++++to 0.00145065
Heightened Def Con from 0.00145065 +++++++to 0.00145065
Heightened Def Con from 0.00145065 +++++++to 0.00145065
Heightened Def Con from 0.00145065 +++++++to 0.00145065
Heightened Def Con from 0.00145065 +++++++to 0.00145065
Heightened Def Con from 0.00145065 +++++++to 0.00145065
Heightened Def Con from 0.00150071 to 0.00150071
Heightened Def Con from 0.00150071 to 0.00150071
Heightened Def Con from 0.00150071 to 0.00150071
Heightened Def Con from 0.00150071 to 0.00150071
Heightened Def Con from 0.00150071 to 0.00150071
Heightened Def Con from 0.00150071 to 0.00150071
Heightened Def Con from 0.00150071 +to 0.00150071
Heightened Def Con from 0.00150071 to 0.00150071
Heightened Def Con from 0.00150071 to 0.00150071
Heightened Def Con from 0.00150071 to 0.00150071
Heightened Def Con from 0.00150071 to 0.00150071
Heightened Def Con from 0.00150071 to 0.00150071
Heightened Def Con from 0.00150071 to 0.00150071
Heightened Def Con from 0.00150071 to 0.00150071
Heightened Def Con from 0.00150071 to 0.00150071
Heightened Def Con from 0.00150071 to 0.00150071
Heightened Def Con from 0.00150071 to 0.00150071
Heightened Def Con from 0.00150071 to 0.00150071
Heightened Def Con from 0.00150071 to 0.00150071
Heightened Def Con from 0.00150071 to 0.00150071
Heightened Def Con from 0.00150071 to 0.00150071
Heightened Def Con from 0.00150071 to 0.00150071
Heightened Def Con from 0.00150071 +to 0.00150071
Heightened Def Con from 0.00150071 to 0.00150071
Heightened Def Con from 0.00150071 to 0.00150071
Heightened Def Con from 0.00150071 to 0.00150071
Heightened Def Con from 0.00150071 to 0.00150071
Heightened Def Con from 0.00150071 to 0.00150071
Heightened Def Con from 0.00150071 to 0.00150071
Heightened Def Con from 0.00150071 to 0.00150071
Heightened Def Con from 0.00150071 +to 0.00150071
Heightened Def Con from 0.00150071 to 0.00150071
Heightened Def Con from 0.00150071 to 0.00150071
Heightened Def Con from 0.00150071 to 0.00150071
Heightened Def Con from 0.00150071 to 0.00150071
Heightened Def Con from 0.00150071 to 0.00150071
Heightened Def Con from 0.00150071 to 0.00150071
Heightened Def Con from 0.00150071 to 0.00150071
Heightened Def Con from 0.00150071 to 0.00150071
Heightened Def Con from 0.00150071 +to 0.00150071
Heightened Def Con from 0.00150071 to 0.00150071
Heightened Def Con from 0.00150071 to 0.00150071
Heightened Def Con from 0.00150071 +to 0.00150071
Heightened Def Con from 0.00150071 to 0.00150071
Heightened Def Con from 0.00150071 to 0.00150071
Heightened Def Con from 0.00150071 to 0.00150071
Heightened Def Con from 0.00150071 to 0.00150071
Heightened Def Con from 0.00150071 to 0.00150071
Heightened Def Con from 0.00150071 to 0.00150071
Heightened Def Con from 0.00150071 to 0.00150071
Heightened Def Con from 0.00150071 to 0.00150071
Heightened Def Con from 0.00150071 to 0.00150071
Heightened Def Con from 0.00150071 to 0.00150071
Heightened Def Con from 0.00150071 to 0.00150071
Heightened Def Con from 0.00150071 to 0.00150071
Heightened Def Con from 0.00150071 to 0.00150071
Heightened Def Con from 0.00150071 to 0.00150071
Heightened Def Con from 0.00150071 to 0.00150071
Heightened Def Con from 0.00150071 to 0.00150071
Heightened Def Con from 0.00150071 to 0.00150071
Heightened Def Con from 0.00150071 +++++++++++++++++++to 0.00150071
Heightened Def Con from 0.00150071 ++++++++++to 0.00150071
Heightened Def Con from 0.00150071 ++++++++++to 0.00150071
Heightened Def Con from 0.00150071 ++++++++++to 0.00150071
Heightened Def Con from 0.00150071 ++++++++++to 0.00150071
Heightened Def Con from 0.00150071 ++++++++++to 0.00150071
Heightened Def Con from 0.00150071 ++++++++++to 0.00150071
Heightened Def Con from 0.00155065 to 0.00155065
Heightened Def Con from 0.00155065 to 0.00155065
Heightened Def Con from 0.00155065 to 0.00155065
Heightened Def Con from 0.00155065 to 0.00155065
Heightened Def Con from 0.00155065 to 0.00155065
Heightened Def Con from 0.00155065 to 0.00155065
Heightened Def Con from 0.00155065 to 0.00155065
Heightened Def Con from 0.00155065 to 0.00155065
Heightened Def Con from 0.00155065 to 0.00155065
Heightened Def Con from 0.00155065 to 0.00155065
Heightened Def Con from 0.00155065 to 0.00155065
Heightened Def Con from 0.00155065 to 0.00155065
Heightened Def Con from 0.00155065 to 0.00155065
Heightened Def Con from 0.00155065 to 0.00155065
Heightened Def Con from 0.00155065 to 0.00155065
Heightened Def Con from 0.00155065 to 0.00155065
Heightened Def Con from 0.00155065 to 0.00155065
Heightened Def Con from 0.00155065 to 0.00155065
Heightened Def Con from 0.00155065 to 0.00155065
Heightened Def Con from 0.00155065 to 0.00155065
Heightened Def Con from 0.00155065 to 0.00155065
Heightened Def Con from 0.00155065 to 0.00155065
Heightened Def Con from 0.00155065 to 0.00155065
Heightened Def Con from 0.00155065 to 0.00155065
Heightened Def Con from 0.00155065 to 0.00155065
Heightened Def Con from 0.00155065 to 0.00155065
Heightened Def Con from 0.00155065 to 0.00155065
Heightened Def Con from 0.00155065 to 0.00155065
Heightened Def Con from 0.00155065 to 0.00155065
Heightened Def Con from 0.00155065 to 0.00155065
Heightened Def Con from 0.00155065 to 0.00155065
Heightened Def Con from 0.00155065 to 0.00155065
Heightened Def Con from 0.00155065 to 0.00155065
Heightened Def Con from 0.00155065 to 0.00155065
Heightened Def Con from 0.00155065 to 0.00155065
Heightened Def Con from 0.00155065 to 0.00155065
Heightened Def Con from 0.00155065 to 0.00155065
Heightened Def Con from 0.00155065 to 0.00155065
Heightened Def Con from 0.00155065 +++++++++++++++++++to 0.00155065
Heightened Def Con from 0.00155065 +++++++++++to 0.00155065
Heightened Def Con from 0.00155065 ++++++++to 0.00155065
Heightened Def Con from 0.00155065 +++++++to 0.00155065
Heightened Def Con from 0.00155065 +++++++to 0.00155065
Heightened Def Con from 0.00155065 +++++++to 0.00155065
Heightened Def Con from 0.00155065 +++++++to 0.00155065
Heightened Def Con from 0.00155065 +++++++to 0.00155065
Heightened Def Con from 0.00155065 +++++++to 0.00155065
Heightened Def Con from 0.00155065 +++++++to 0.00155065
Heightened Def Con from 0.00155065 +++++++to 0.00155066
Heightened Def Con from 0.00160071 to 0.00160071
Heightened Def Con from 0.00160071 to 0.00160071
Heightened Def Con from 0.00160071 to 0.00160071
Heightened Def Con from 0.00160071 to 0.00160071
Heightened Def Con from 0.00160071 to 0.00160071
Heightened Def Con from 0.00160071 to 0.00160071
Heightened Def Con from 0.00160071 to 0.00160071
Heightened Def Con from 0.00160071 to 0.00160071
Heightened Def Con from 0.00160071 +to 0.00160071
Heightened Def Con from 0.00160071 +++++++++++++++++++to 0.00160071
Heightened Def Con from 0.00160071 +++++++++++to 0.00160071
Heightened Def Con from 0.00160071 +++++++++++to 0.00160071
Heightened Def Con from 0.00160071 +++++++++++to 0.00160071
Heightened Def Con from 0.00165065 to 0.00165065
Heightened Def Con from 0.00165065 to 0.00165065
Heightened Def Con from 0.00165065 to 0.00165065
Heightened Def Con from 0.00165065 to 0.00165065
Heightened Def Con from 0.00165065 to 0.00165065
Heightened Def Con from 0.00165065 +to 0.00165065
Heightened Def Con from 0.00165065 to 0.00165065
Heightened Def Con from 0.00165065 to 0.00165065
Heightened Def Con from 0.00165065 to 0.00165065
Heightened Def Con from 0.00165065 +to 0.00165065
Heightened Def Con from 0.00165065 to 0.00165065
Heightened Def Con from 0.00165065 to 0.00165065
Heightened Def Con from 0.00165065 to 0.00165065
Heightened Def Con from 0.00165065 to 0.00165065
Heightened Def Con from 0.00165065 to 0.00165065
Heightened Def Con from 0.00165065 to 0.00165065
Heightened Def Con from 0.00165065 to 0.00165065
Heightened Def Con from 0.00165065 to 0.00165065
Heightened Def Con from 0.00165065 to 0.00165065
Heightened Def Con from 0.00165065 to 0.00165065
Heightened Def Con from 0.00165065 to 0.00165065
Heightened Def Con from 0.00165065 to 0.00165065
Heightened Def Con from 0.00165065 to 0.00165065
Heightened Def Con from 0.00165065 to 0.00165065
Heightened Def Con from 0.00165065 to 0.00165065
Heightened Def Con from 0.00165065 to 0.00165065
Heightened Def Con from 0.00165065 to 0.00165065
Heightened Def Con from 0.00165065 to 0.00165065
Heightened Def Con from 0.00165065 to 0.00165065
Heightened Def Con from 0.00165065 to 0.00165065
Heightened Def Con from 0.00165065 to 0.00165065
Heightened Def Con from 0.00165065 to 0.00165065
Heightened Def Con from 0.00165065 to 0.00165065
Heightened Def Con from 0.00165065 +to 0.00165065
Heightened Def Con from 0.00165065 +to 0.00165065
Heightened Def Con from 0.00165065 to 0.00165065
Heightened Def Con from 0.00165065 to 0.00165065
Heightened Def Con from 0.00165065 to 0.00165065
Heightened Def Con from 0.00165065 +to 0.00165065
Heightened Def Con from 0.00165065 +to 0.00165065
Heightened Def Con from 0.00165065 to 0.00165065
Heightened Def Con from 0.00165065 +++++++++++++++++++to 0.00165066
Heightened Def Con from 0.00165066 +++++++++++to 0.00165066
Heightened Def Con from 0.00165066 ++++++++to 0.00165066
Heightened Def Con from 0.00165066 +++++++to 0.00165066
Heightened Def Con from 0.00165066 +++++++to 0.00165066
Heightened Def Con from 0.00165066 +++++++to 0.00165066
Heightened Def Con from 0.00165066 +++++++to 0.00165066
Heightened Def Con from 0.00165066 +++++++to 0.00165066
Heightened Def Con from 0.00165066 +++++++to 0.00165066
Heightened Def Con from 0.00165066 +++++++to 0.00165066
Heightened Def Con from 0.00165066 +++++++to 0.00165066
Heightened Def Con from 0.00165066 +++++++to 0.00165066
Heightened Def Con from 0.00165066 +++++++to 0.00165066
Heightened Def Con from 0.00165066 +++++++to 0.00165066
Heightened Def Con from 0.00170071 to 0.00170071
Heightened Def Con from 0.00170071 to 0.00170071
Heightened Def Con from 0.00170071 to 0.00170071
Heightened Def Con from 0.00170071 to 0.00170071
Heightened Def Con from 0.00170071 to 0.00170071
Heightened Def Con from 0.00170071 to 0.00170071
Heightened Def Con from 0.00170071 to 0.00170071
Heightened Def Con from 0.00170071 to 0.00170071
Heightened Def Con from 0.00170071 to 0.00170071
Heightened Def Con from 0.00170071 to 0.00170071
Heightened Def Con from 0.00170071 to 0.00170071
Heightened Def Con from 0.00170071 to 0.00170071
Heightened Def Con from 0.00170071 to 0.00170071
Heightened Def Con from 0.00170071 to 0.00170071
Heightened Def Con from 0.00170071 to 0.00170071
Heightened Def Con from 0.00170071 to 0.00170071
Heightened Def Con from 0.00170071 to 0.00170071
Heightened Def Con from 0.00170071 to 0.00170071
Heightened Def Con from 0.00170071 to 0.00170071
Heightened Def Con from 0.00170071 to 0.00170071
Heightened Def Con from 0.00170071 to 0.00170071
Heightened Def Con from 0.00170071 to 0.00170071
Heightened Def Con from 0.00170071 to 0.00170071
Heightened Def Con from 0.00170071 to 0.00170071
Heightened Def Con from 0.00170071 to 0.00170071
Heightened Def Con from 0.00170071 to 0.00170071
Heightened Def Con from 0.00170071 to 0.00170071
Heightened Def Con from 0.00170071 to 0.00170071
Heightened Def Con from 0.00170071 to 0.00170071
Heightened Def Con from 0.00170071 to 0.00170071
Heightened Def Con from 0.00170071 to 0.00170071
Heightened Def Con from 0.00170071 to 0.00170071
Heightened Def Con from 0.00170071 to 0.00170071
Heightened Def Con from 0.00170071 to 0.00170071
Heightened Def Con from 0.00170071 to 0.00170071
Heightened Def Con from 0.00170071 to 0.00170071
Heightened Def Con from 0.00170071 to 0.00170071
Heightened Def Con from 0.00170071 to 0.00170071
Heightened Def Con from 0.00170071 to 0.00170071
Heightened Def Con from 0.00170071 to 0.00170071
Heightened Def Con from 0.00170071 to 0.00170071
Heightened Def Con from 0.00170071 to 0.00170071
Heightened Def Con from 0.00170071 to 0.00170071
Heightened Def Con from 0.00170071 to 0.00170071
Heightened Def Con from 0.00175065 to 0.00175065
Heightened Def Con from 0.00175065 to 0.00175065
Heightened Def Con from 0.00175065 +to 0.00175065
Heightened Def Con from 0.00175065 to 0.00175065
Heightened Def Con from 0.00175065 to 0.00175065
Heightened Def Con from 0.00175065 to 0.00175065
Heightened Def Con from 0.00175065 to 0.00175065
Heightened Def Con from 0.00175065 to 0.00175065
Heightened Def Con from 0.00175065 to 0.00175065
Heightened Def Con from 0.00175065 to 0.00175065
Heightened Def Con from 0.00175065 to 0.00175065
Heightened Def Con from 0.00175065 to 0.00175065
Heightened Def Con from 0.00175065 to 0.00175065
Heightened Def Con from 0.00175065 to 0.00175065
Heightened Def Con from 0.00175065 to 0.00175065
Heightened Def Con from 0.00175065 to 0.00175065
Heightened Def Con from 0.00175065 to 0.00175065
Heightened Def Con from 0.00175065 to 0.00175065
Heightened Def Con from 0.00175065 +++++++++++++++++++to 0.00175065
Heightened Def Con from 0.00175065 ++++++++++to 0.00175065
Heightened Def Con from 0.00175065 ++++++++to 0.00175066
Heightened Def Con from 0.00175066 ++++++++to 0.00175066
Heightened Def Con from 0.00175066 ++++++++to 0.00175066
Heightened Def Con from 0.00180071 to 0.00180071
Heightened Def Con from 0.00180071 to 0.00180071
Heightened Def Con from 0.00180071 to 0.00180071
Heightened Def Con from 0.00180071 to 0.00180071
Heightened Def Con from 0.00180071 to 0.00180071
Heightened Def Con from 0.00180071 to 0.00180071
Heightened Def Con from 0.00180071 to 0.00180071
Heightened Def Con from 0.00180071 to 0.00180071
Heightened Def Con from 0.00180071 to 0.00180071
Heightened Def Con from 0.00180071 +to 0.00180071
Heightened Def Con from 0.00180071 +++++++++++++++++++to 0.00180071
Heightened Def Con from 0.00180071 +++++++++++to 0.00180071
Heightened Def Con from 0.00180071 +++++++++++to 0.00180071
Heightened Def Con from 0.00180071 +++++++++++to 0.00180071
Heightened Def Con from 0.00185065 to 0.00185065
Heightened Def Con from 0.00185065 to 0.00185065
Heightened Def Con from 0.00185065 to 0.00185065
Heightened Def Con from 0.00185065 to 0.00185065
Heightened Def Con from 0.00185065 to 0.00185065
Heightened Def Con from 0.00185065 to 0.00185065
Heightened Def Con from 0.00185065 to 0.00185065
Heightened Def Con from 0.00185065 to 0.00185065
Heightened Def Con from 0.00185065 to 0.00185065
Heightened Def Con from 0.00185065 to 0.00185065
Heightened Def Con from 0.00185065 +++++++++++++++++++to 0.00185065
Heightened Def Con from 0.00185065 +++++++++++to 0.00185066
Heightened Def Con from 0.00185066 ++++++++to 0.00185066
Heightened Def Con from 0.00185066 +++++++to 0.00185066
Heightened Def Con from 0.00185066 +++++++to 0.00185066
Heightened Def Con from 0.00190071 to 0.00190071
Heightened Def Con from 0.00190071 to 0.00190071
Heightened Def Con from 0.00190071 to 0.00190071
Heightened Def Con from 0.00190071 to 0.00190071
Heightened Def Con from 0.00190071 to 0.00190071
Heightened Def Con from 0.00190071 to 0.00190071
Heightened Def Con from 0.00190071 to 0.00190071
Heightened Def Con from 0.00190071 to 0.00190071
Heightened Def Con from 0.00190071 to 0.00190071
Heightened Def Con from 0.00190071 to 0.00190071
Heightened Def Con from 0.00190071 to 0.00190071
Heightened Def Con from 0.00190071 to 0.00190071
Heightened Def Con from 0.00190071 +++++++++++++++++++to 0.00190071
Heightened Def Con from 0.00190071 +++++++++++to 0.00190071
Heightened Def Con from 0.00190071 +++++++++++to 0.00190071
Heightened Def Con from 0.00190071 +++++++++++to 0.00190071
Heightened Def Con from 0.00190071 +++++++++++to 0.00190071
Heightened Def Con from 0.00190071 +++++++++++to 0.00190071
Heightened Def Con from 0.00190071 +++++++++++to 0.00190071
Heightened Def Con from 0.00190071 +++++++++++to 0.00190071
Heightened Def Con from 0.00190071 +++++++++++to 0.00190071
Heightened Def Con from 0.00190071 +++++++++++to 0.00190072
Heightened Def Con from 0.00195065 to 0.00195065
Heightened Def Con from 0.00195065 to 0.00195065
Heightened Def Con from 0.00195065 to 0.00195065
Heightened Def Con from 0.00195065 to 0.00195065
Heightened Def Con from 0.00195065 to 0.00195065
Heightened Def Con from 0.00195065 to 0.00195065
Heightened Def Con from 0.00195065 to 0.00195065
Heightened Def Con from 0.00195065 to 0.00195065
Heightened Def Con from 0.00195065 to 0.00195065
Heightened Def Con from 0.00195065 to 0.00195065
Heightened Def Con from 0.00195065 to 0.00195065
Heightened Def Con from 0.00195065 to 0.00195065
Heightened Def Con from 0.00195065 to 0.00195065
Heightened Def Con from 0.00195065 to 0.00195065
Heightened Def Con from 0.00195065 to 0.00195065
Heightened Def Con from 0.00195065 to 0.00195065
Heightened Def Con from 0.00195065 to 0.00195065
Heightened Def Con from 0.00195065 to 0.00195065
Heightened Def Con from 0.00195065 to 0.00195065
Heightened Def Con from 0.00195065 to 0.00195065
Heightened Def Con from 0.00195065 to 0.00195065
Heightened Def Con from 0.00195065 to 0.00195065
Heightened Def Con from 0.00195065 to 0.00195065
Heightened Def Con from 0.00195065 to 0.00195065
Heightened Def Con from 0.00195065 +to 0.00195065
Heightened Def Con from 0.00195065 to 0.00195065
Heightened Def Con from 0.00195065 to 0.00195065
Heightened Def Con from 0.00195065 to 0.00195065
Heightened Def Con from 0.00195065 to 0.00195065
Heightened Def Con from 0.00195065 +to 0.00195065
Heightened Def Con from 0.00195065 to 0.00195065
Heightened Def Con from 0.00195065 to 0.00195065
Heightened Def Con from 0.00195065 to 0.00195065
Heightened Def Con from 0.00195065 to 0.00195065
Heightened Def Con from 0.00195065 to 0.00195065
Heightened Def Con from 0.00195065 to 0.00195065
Heightened Def Con from 0.00195065 to 0.00195065
Heightened Def Con from 0.00195065 to 0.00195065
Heightened Def Con from 0.00195065 to 0.00195065
Heightened Def Con from 0.00195065 to 0.00195065
Heightened Def Con from 0.00195065 to 0.00195065
Heightened Def Con from 0.00195065 +to 0.00195065
Heightened Def Con from 0.00195065 to 0.00195065
Heightened Def Con from 0.00195065 to 0.00195065
Heightened Def Con from 0.00195065 to 0.00195065
Heightened Def Con from 0.00195065 to 0.00195065
Heightened Def Con from 0.00195065 to 0.00195065
Heightened Def Con from 0.00195065 to 0.00195065
Heightened Def Con from 0.00195065 to 0.00195065
Heightened Def Con from 0.00195065 to 0.00195065
Heightened Def Con from 0.00195065 to 0.00195065
Heightened Def Con from 0.00195065 to 0.00195065
Heightened Def Con from 0.00195065 to 0.00195065
Heightened Def Con from 0.00195065 to 0.00195065
Heightened Def Con from 0.00195065 to 0.00195065
Heightened Def Con from 0.00195065 to 0.00195065
Heightened Def Con from 0.00195065 to 0.00195065
Heightened Def Con from 0.00195065 to 0.00195065
Heightened Def Con from 0.00195065 to 0.00195065
Heightened Def Con from 0.00195065 to 0.00195065
Heightened Def Con from 0.00195065 to 0.00195065
Heightened Def Con from 0.00195065 +++++++++++++++++++to 0.00195065
Heightened Def Con from 0.00195065 +++++++++++to 0.00195066
Heightened Def Con from 0.00195066 ++++++++to 0.00195066
Heightened Def Con from 0.00195066 +++++++to 0.00195066
Heightened Def Con from 0.00195066 +++++++to 0.00195066
Heightened Def Con from 0.00200071 to 0.00200071
Heightened Def Con from 0.00200071 to 0.00200071
Heightened Def Con from 0.00200071 to 0.00200071
Heightened Def Con from 0.00200071 to 0.00200071
Heightened Def Con from 0.00200071 +to 0.00200071
Heightened Def Con from 0.00200071 to 0.00200071
Heightened Def Con from 0.00200071 +to 0.00200071
Heightened Def Con from 0.00200071 +to 0.00200071
Heightened Def Con from 0.00200071 to 0.00200071
Heightened Def Con from 0.00200071 to 0.00200071
Heightened Def Con from 0.00200071 to 0.00200071
Heightened Def Con from 0.00200071 to 0.00200071
Heightened Def Con from 0.00200071 to 0.00200071
Heightened Def Con from 0.00200071 to 0.00200071
Heightened Def Con from 0.00200071 +to 0.00200071
Heightened Def Con from 0.00200071 to 0.00200071
Heightened Def Con from 0.00200071 to 0.00200071
Heightened Def Con from 0.00200071 to 0.00200071
Heightened Def Con from 0.00200071 to 0.00200071
Heightened Def Con from 0.00200071 to 0.00200071
Heightened Def Con from 0.00200071 to 0.00200071
Heightened Def Con from 0.00200071 to 0.00200071
Heightened Def Con from 0.00200071 to 0.00200071
Heightened Def Con from 0.00200071 to 0.00200071
Heightened Def Con from 0.00200071 to 0.00200071
Heightened Def Con from 0.00200071 +++++++++++++++++++to 0.00200071
Heightened Def Con from 0.00200071 +++++++++++to 0.00200071
Heightened Def Con from 0.00200071 +++++++++++to 0.00200071
Heightened Def Con from 0.00200071 +++++++++++to 0.00200071
Heightened Def Con from 0.00200071 +++++++++++to 0.00200071
Heightened Def Con from 0.00200071 +++++++++++to 0.00200071
Heightened Def Con from 0.00200071 +++++++++++to 0.00200071
Heightened Def Con from 0.00200071 +++++++++++to 0.00200071
Heightened Def Con from 0.00200071 +++++++++++to 0.00200071
Heightened Def Con from 0.00200071 +++++++++++to 0.00200071
Heightened Def Con from 0.00200071 +++++++++++to 0.00200072
Heightened Def Con from 0.00205065 to 0.00205065
Heightened Def Con from 0.00205065 to 0.00205065
Heightened Def Con from 0.00205065 to 0.00205065
Heightened Def Con from 0.00205065 to 0.00205065
Heightened Def Con from 0.00205065 to 0.00205065
Heightened Def Con from 0.00205065 to 0.00205065
Heightened Def Con from 0.00205065 to 0.00205065
Heightened Def Con from 0.00205065 to 0.00205065
Heightened Def Con from 0.00205065 to 0.00205065
Heightened Def Con from 0.00205065 to 0.00205065
Heightened Def Con from 0.00205065 to 0.00205065
Heightened Def Con from 0.00205065 to 0.00205065
Heightened Def Con from 0.00205065 +++++++++++++++++++to 0.00205066
Heightened Def Con from 0.00205066 +++++++++++to 0.00205066
Heightened Def Con from 0.00205066 ++++++++to 0.00205066
Heightened Def Con from 0.00205066 +++++++to 0.00205066
Heightened Def Con from 0.00205066 +++++++to 0.00205066
Heightened Def Con from 0.00205066 +++++++to 0.00205066
Heightened Def Con from 0.00210071 to 0.00210071
Heightened Def Con from 0.00210071 +++++++++++++++++++to 0.00210071
Heightened Def Con from 0.00210071 +++++++++++to 0.00210071
Heightened Def Con from 0.00210071 +++++++++++to 0.00210071
Heightened Def Con from 0.00210071 +++++++++++to 0.00210072
Heightened Def Con from 0.00210072 +++++++++++to 0.00210072
Heightened Def Con from 0.00210072 +++++++++++to 0.00210072
Heightened Def Con from 0.00210072 +++++++++++to 0.00210072
Heightened Def Con from 0.00210072 +++++++++++to 0.00210072
Heightened Def Con from 0.00210072 +++++++++++to 0.00210072
Heightened Def Con from 0.00210072 +++++++++++to 0.00210072
Heightened Def Con from 0.00210072 +++++++++++to 0.00210072
Heightened Def Con from 0.00210072 +++++++++++to 0.00210072
Heightened Def Con from 0.00210072 +++++++++++to 0.00210072
Heightened Def Con from 0.00210072 +++++++++++to 0.00210072
Heightened Def Con from 0.00215065 to 0.00215065
Heightened Def Con from 0.00215065 to 0.00215065
Heightened Def Con from 0.00215065 to 0.00215065
Heightened Def Con from 0.00215065 to 0.00215065
Heightened Def Con from 0.00215065 to 0.00215065
Heightened Def Con from 0.00215065 to 0.00215065
Heightened Def Con from 0.00215065 to 0.00215065
Heightened Def Con from 0.00215065 to 0.00215065
Heightened Def Con from 0.00215065 ++to 0.00215065
Heightened Def Con from 0.00215065 to 0.00215065
Heightened Def Con from 0.00215065 +to 0.00215065
Heightened Def Con from 0.00215065 +++++++++to 0.00215065
Heightened Def Con from 0.00215065 ++++++++++++++++++++++++++++++++++to 0.00215065
Heightened Def Con from 0.00215065 +++++++++++++++++++++++++++++++++to 0.00215065
Heightened Def Con from 0.00215065 +++++++++++++++++++++++++++++++++++to 0.00215065
Heightened Def Con from 0.00215065 ++++++++++++++++++++++++++++++++++to 0.00215065
Heightened Def Con from 0.00215065 ++++++++++++++++++++++++++++++++++to 0.00215065
Heightened Def Con from 0.00215065 ++++++++++++++++++++++++++++++++++to 0.00215065
Heightened Def Con from 0.00215065 +++++++++++++++++++++++++++++++to 0.00215065
Heightened Def Con from 0.00215065 +++++++++++++++++++++++++++++++to 0.00215065
Heightened Def Con from 0.00215065 +++++++++++++++++++++++++++++++to 0.00215065
Heightened Def Con from 0.00215065 +++++++++++++++++++++++++++++++to 0.00215065
Heightened Def Con from 0.00215065 ++++++++++++++++++++++++++++++++++to 0.00215065
Heightened Def Con from 0.00215065 ++++++++++++++++++++++++++++++++++to 0.00215065
Heightened Def Con from 0.00215065 +++++++++++++++++++++++++++++++++++to 0.00215065
Heightened Def Con from 0.00215065 +++++++++++++++++++++++++++++++++to 0.00215065
Heightened Def Con from 0.00215065 ++++++++++++++++++++++++++++++++to 0.00215065
Heightened Def Con from 0.00215065 +++++++++++++++++++++++++++++++++++to 0.00215065
Heightened Def Con from 0.00215065 ++++++++++++++++++++++++++++++++to 0.00215065
Heightened Def Con from 0.00215065 ++++++++++++++++++++++++++++++++to 0.00215065
Heightened Def Con from 0.00215065 +++++++++++++++++++++++++++++++++to 0.00215065
Heightened Def Con from 0.00215065 ++++++++++++++++++++++++++++++++to 0.00215065
Heightened Def Con from 0.00215065 ++++++++++++++++++++++++++++++++to 0.00215065
Heightened Def Con from 0.00215065 ++++++++++++++++++++++++++++++++to 0.00215065
Heightened Def Con from 0.00215065 ++++++++++++++++++++++++++++++++to 0.00215065
Heightened Def Con from 0.00215065 ++++++++++++++++++++++++++++++++to 0.00215065
Heightened Def Con from 0.00215065 ++++++++++++++++++++++++++++++++to 0.00215065
Heightened Def Con from 0.00215065 ++++++++++++++++++++++++++++++++to 0.00215065
Heightened Def Con from 0.00215065 ++++++++++++++++++++++++++++++++to 0.00215065
Heightened Def Con from 0.00215065 ++++++++++++++++++++++++++++++++to 0.00215065
Heightened Def Con from 0.00215065 ++++++++++++++++++++++++++++++++to 0.00215065
Heightened Def Con from 0.00215065 ++++++++++++++++++++++++++++++++to 0.00215065
Heightened Def Con from 0.00215065 ++++++++++++++++++++++++++++++++to 0.00215065
Heightened Def Con from 0.00215065 ++++++++++++++++++++++++++++++++to 0.00215065
Heightened Def Con from 0.00215065 ++++++++++++++++++++++++++++++++to 0.00215065
Heightened Def Con from 0.00215065 ++++++++++++++++++++++++++++++++to 0.00215065
Heightened Def Con from 0.00215065 ++++++++++++++++++++++++++++++++to 0.00215065
Heightened Def Con from 0.00215065 ++++++++++++++++++++++++++++++++to 0.00215065
Heightened Def Con from 0.00215065 ++++++++++++++++++++++++++++++++to 0.00215065
Heightened Def Con from 0.00215065 ++++++++++++++++++++++++++++++++to 0.00215065
Heightened Def Con from 0.00215065 ++++++++++++++++++++++++++++++++to 0.00215065
Heightened Def Con from 0.00215065 ++++++++++++++++++++++++++++++++to 0.00215065
Heightened Def Con from 0.00215065 ++++++++++++++++++++++++++++++++to 0.00215065
Heightened Def Con from 0.00215065 ++++++++++++++++++++++++++++++++to 0.00215065
Heightened Def Con from 0.00215065 ++++++++++++++++++++++++++++++++to 0.00215065
Heightened Def Con from 0.00215065 +++++++++++++++++++++++++++++++++++++to 0.00215065
Heightened Def Con from 0.00215065 ++++++++++++++++++++++++++++++++++to 0.00215065
Heightened Def Con from 0.00215065 +++++++++++++++++++++++++++++++++++++to 0.00215065
Heightened Def Con from 0.00215065 ++++++++++++++++++++++++++++++++++to 0.00215065
Heightened Def Con from 0.00215065 ++++++++++++++++++++++++++++++++++++to 0.00215065
Heightened Def Con from 0.00215065 ++++++++++++++++++++++++++++++++++++to 0.00215065
Heightened Def Con from 0.00215065 ++++++++++++++++++++++++++++++++++++to 0.00215065
Heightened Def Con from 0.00215065 ++++++++++++++++++++++++++++++++++++to 0.00215065
Heightened Def Con from 0.00215065 +++++++++++++++++++++++++++++++++++to 0.00215065
Heightened Def Con from 0.00215065 ++++++++++++++++++++++++++++++++++++to 0.00215065
Heightened Def Con from 0.00215065 ++++++++++++++++++++++++++++++++++++to 0.00215065
Heightened Def Con from 0.00215065 ++++++++++++++++++++++++++++++++++++to 0.00215065
Heightened Def Con from 0.00215065 ++++++++++++++++++++++++++++++++++++to 0.00215065
Heightened Def Con from 0.00215065 ++++++++++++++++++++++++++++++++++++to 0.00215065
Heightened Def Con from 0.00215065 ++++++++++++++++++++++++++++++++++++to 0.00215065
Heightened Def Con from 0.00215065 ++++++++++++++++++++++++++++++++++++to 0.00215065
Heightened Def Con from 0.00215065 ++++++++++++++++++++++++++++++++++++to 0.00215065
Heightened Def Con from 0.00215065 +++++++++++++++++++++++++++++++++++to 0.00215065
Heightened Def Con from 0.00215065 ++++++++++++++++++++++++++++++++++++to 0.00215065
Heightened Def Con from 0.00215065 +++++++++++++++++++++++++++++++++++to 0.00215065
Heightened Def Con from 0.00215065 ++++++++++++++++++++++++++++++++++++to 0.00215065
Heightened Def Con from 0.00215065 ++++++++++++++++++++++++++++++++++++to 0.00215065
Heightened Def Con from 0.00215065 ++++++++++++++++++++++++++++++++++++to 0.00215065
Heightened Def Con from 0.00215065 ++++++++++++++++++++++++++++++++++++to 0.00215065
Heightened Def Con from 0.00215065 ++++++++++++++++++++++++++++++++++++to 0.00215065
Heightened Def Con from 0.00215065 +++++++++++++++++++++++++++++++++++to 0.00215065
Heightened Def Con from 0.00215065 ++++++++++++++++++++++++++++++++++++to 0.00215065
Heightened Def Con from 0.00215065 ++++++++++++++++++++++++++++++++++++to 0.00215065
Heightened Def Con from 0.00215065 ++++++++++++++++++++++++++++++++++++to 0.00215065
Heightened Def Con from 0.00215065 ++++++++++++++++++++++++++++++++++++to 0.00215065
Heightened Def Con from 0.00215065 ++++++++++++++++++++++++++++++++++++to 0.00215065
Heightened Def Con from 0.00215065 ++++++++++++++++++++++++++++++++++++to 0.00215065
Heightened Def Con from 0.00215065 ++++++++++++++++++++++++++++++++++++to 0.00215065
Heightened Def Con from 0.00215065 ++++++++++++++++++++++++++++++++++++to 0.00215065
Heightened Def Con from 0.00215065 ++++++++++++++++++++++++++++++++++++to 0.00215065
Heightened Def Con from 0.00215065 ++++++++++++++++++++++++++++++++++++to 0.00215065
Heightened Def Con from 0.00215065 ++++++++++++++++++++++++++++++++++++to 0.00215065
Heightened Def Con from 0.00215065 ++++++++++++++++++++++++++++++++++++to 0.00215065
[...]
Heightened Def Con from 0.00215065 ++++++++++++++++++++++++++++++++++++++to 0.00215065
Heightened Def Con from 0.00215065 +++++++++++++++++++++++++++++++++++++to 0.00215065
Heightened Def Con from 0.00215065 ++++++++++++++++++++++++++++++++++++++to 0.00215065
Heightened Def Con from 0.00215065 +++++++++++++++++++++++++++++++++++++to 0.00215065
Heightened Def Con from 0.00215065 ++++++++++++++++++++++++++++++++++++++to 0.00215065
Heightened Def Con from 0.00215065 +++++++++++++++++++++++++++++++++++++to 0.00215065
Heightened Def Con from 0.00215065 ++++++++++++++++++++++++++++++++++++++to 0.00215065
Heightened Def Con from 0.00215065 +++++++++++++++++++++++++++++++++++++to 0.00215065
Heightened Def Con from 0.00215065 ++++++++++++++++++++++++++++++++++++++to 0.00215065
Heightened Def Con from 0.00215065 +++++++++++++++++++++++++++++++++++++to 0.00215065
Heightened Def Con from 0.00215065 ++++++++++++++++++++++++++++++++++++++to 0.00215065
Heightened Def Con from 0.00215065 +++++++++++++++++++++++++++++++++++++to 0.00215065
Heightened Def Con from 0.00215065 ++++++++++++++++++++++++++++++++++++++to 0.00215065
Heightened Def Con from 0.00215065 +++++++++++++++++++++++++++++++++++++to 0.00215065
Heightened Def Con from 0.00215065 ++++++++++++++++++++++++++++++++++++++to 0.00215065
Heightened Def Con from 0.00215065 +++++++++++++++++++++++++++++++++++++to 0.00215065
Heightened Def Con from 0.00215065 ++++++++++++++++++++++++++++++++++++++to 0.00215065
Heightened Def Con from 0.00215065 +++++++++++++++++++++++++++++++++++++to 0.00215065
Heightened Def Con from 0.00215065 ++++++++++++++++++++++++++++++++++++++to 0.00215065
Heightened Def Con from 0.00215065 +++++++++++++++++++++++++++++++++++++to 0.00215065
Heightened Def Con from 0.00215065 ++++++++++++++++++++++++++++++++++++++to 0.00215065
Heightened Def Con from 0.00215065 +++++++++++++++++++++++++++++++++++++to 0.00215065
Heightened Def Con from 0.00215065 ++++++++++++++++++++++++++++++++++++++to 0.00215065
Heightened Def Con from 0.00215065 +++++++++++++++++++++++++++++++++++++to 0.00215065
Heightened Def Con from 0.00215065 ++++++++++++++++++++++++++++++++++++++to 0.00215065
Heightened Def Con from 0.00215065 +++++++++++++++++++++++++++++++++++++to 0.00215065
Heightened Def Con from 0.00215065 ++++++++++++++++++++++++++++++++++++++to 0.00215065
Heightened Def Con from 0.00215065 +++++++++++++++++++++++++++++++++++++to 0.00215065
Heightened Def Con from 0.00215065 ++++++++++++++++++++++++++++++++++++++to 0.00215065
Heightened Def Con from 0.00215065 +++++++++++++++++++++++++++++++++++++to 0.00215065
Heightened Def Con from 0.00215065 ++++++++++++++++++++++++++++++++++++++to 0.00215065
Heightened Def Con from 0.00215065 +++++++++++++++++++++++++++++++++++++to 0.00215065
Heightened Def Con from 0.00215065 ++++++++++++++++++++++++++++++++++++++to 0.00215065
Heightened Def Con from 0.00215065 +++++++++++++++++++++++++++++++++++++to 0.00215065
Heightened Def Con from 0.00215065 ++++++++++++++++++++++++++++++++++++++to 0.00215065
Heightened Def Con from 0.00215065 +++++++++++++++++++++++++++++++++++++to 0.00215065
Heightened Def Con from 0.00215065 ++++++++++++++++++++++++++++++++++++++to 0.00215065
Heightened Def Con from 0.00215065 +++++++++++++++++++++++++++++++++++++to 0.00215065
Heightened Def Con from 0.00215065 ++++++++++++++++++++++++++++++++++++++to 0.00215065
Heightened Def Con from 0.00215065 +++++++++++++++++++++++++++++++++++++to 0.00215065
Heightened Def Con from 0.00215065 ++++++++++++++++++++++++++++++++++++++to 0.00215065
Heightened Def Con from 0.00215065 +++++++++++++++++++++++++++++++++++++to 0.00215065
Heightened Def Con from 0.00215065 ++++++++++++++++++++++++++++++++++++++to 0.00215065
Heightened Def Con from 0.00215065 +++++++++++++++++++++++++++++++++++++to 0.00215065
Heightened Def Con from 0.00215065 ++++++++++++++++++++++++++++++++++++++to 0.00215065
Heightened Def Con from 0.00215065 +++++++++++++++++++++++++++++++++++++to 0.00215065
Heightened Def Con from 0.00215065 ++++++++++++++++++++++++++++++++++++++to 0.00215065
Heightened Def Con from 0.00215065 +++++++++++++++++++++++++++++++++++++to 0.00215065
Heightened Def Con from 0.00215065 ++++++++++++++++++++++++++++++++++++++to 0.00215065
Heightened Def Con from 0.00215065 +++++++++++++++++++++++++++++++++++++to 0.00215065
Heightened Def Con from 0.00215065 ++++++++++++++++++++++++++++++++++++++to 0.00215065
Heightened Def Con from 0.00215065 +++++++++++++++++++++++++++++++++++++to 0.00215065
Heightened Def Con from 0.00215065 ++++++++++++++++++++++++++++++++++++++to 0.00215065
Heightened Def Con from 0.00215065 +++++++++++++++++++++++++++++++++++++to 0.00215065
Heightened Def Con from 0.00215065 ++++++++++++++++++++++++++++++++++++++to 0.00215065
Heightened Def Con from 0.00215065 +++++++++++++++++++++++++++++++++++++to 0.00215065
Heightened Def Con from 0.00215065 ++++++++++++++++++++++++++++++++++++++to 0.00215065
Heightened Def Con from 0.00215065 +++++++++++++++++++++++++++++++++++++to 0.00215065
Heightened Def Con from 0.00215065 ++++++++++++++++++++++++++++++++++++++to 0.00215065
Heightened Def Con from 0.00215065 +++++++++++++++++++++++++++++++++++++to 0.00215065
Heightened Def Con from 0.00215065 ++++++++++++++++++++++++++++++++++++++to 0.00215065
Heightened Def Con from 0.00215065 +++++++++++++++++++++++++++++++++++++to 0.00215065
Heightened Def Con from 0.00215065 ++++++++++++++++++++++++++++++++++++++to 0.00215065
Heightened Def Con from 0.00215065 +++++++++++++++++++++++++++++++++++++to 0.00215065
Heightened Def Con from 0.00215065 ++++++++++++++++++++++++++++++++++++++to 0.00215065
Heightened Def Con from 0.00215065 +++++++++++++++++++++++++++++++++++++to 0.00215065
Heightened Def Con from 0.00215065 ++++++++++++++++++++++++++++++++++++++to 0.00215065
Heightened Def Con from 0.00215065 +++++++++++++++++++++++++++++++++++++to 0.00215065
Heightened Def Con from 0.00215065 ++++++++++++++++++++++++++++++++++++++to 0.00215065
Heightened Def Con from 0.00215065 +++++++++++++++++++++++++++++++++++++to 0.00215065
Heightened Def Con from 0.00215065 ++++++++++++++++++++++++++++++++++++++to 0.00215065
Heightened Def Con from 0.00215065 +++++++++++++++++++++++++++++++++++++to 0.00215065
Heightened Def Con from 0.00215065 ++++++++++++++++++++++++++++++++++++++to 0.00215065
Heightened Def Con from 0.00215065 +++++++++++++++++++++++++++++++++++++to 0.00215065
Heightened Def Con from 0.00215065 ++++++++++++++++++++++++++++++++++++++to 0.00215065
Heightened Def Con from 0.00215065 +++++++++++++++++++++++++++++++++++++to 0.00215065
Heightened Def Con from 0.00215065 ++++++++++++++++++++++++++++++++++++++to 0.00215065
Heightened Def Con from 0.00215065 +++++++++++++++++++++++++++++++++++++to 0.00215065
Heightened Def Con from 0.00215065 ++++++++++++++++++++++++++++++++++++++to 0.00215065
Heightened Def Con from 0.00215065 +++++++++++++++++++++++++++++++++++++to 0.00215065
Heightened Def Con from 0.00215065 ++++++++++++++++++++++++++++++++++++++to 0.00215065
Heightened Def Con from 0.00215065 +++++++++++++++++++++++++++++++++++++to 0.00215065
Heightened Def Con from 0.00215065 ++++++++++++++++++++++++++++++++++++++to 0.00215065
Heightened Def Con from 0.00215065 +++++++++++++++++++++++++++++++++++++to 0.00215065
Heightened Def Con from 0.00215065 ++++++++++++++++++++++++++++++++++++++to 0.00215065
Heightened Def Con from 0.00215065 +++++++++++++++++++++++++++++++++++++to 0.00215065
Heightened Def Con from 0.00215065 ++++++++++++++++++++++++++++++++++++++to 0.00215065
Heightened Def Con from 0.00215065 +++++++++++++++++++++++++++++++++++++to 0.00215065
Heightened Def Con from 0.00215065 ++++++++++++++++++++++++++++++++++++++to 0.00215065
Heightened Def Con from 0.00215065 +++++++++++++++++++++++++++++++++++++to 0.00215065
Heightened Def Con from 0.00215065 ++++++++++++++++++++++++++++++++++++++to 0.00215065
Heightened Def Con from 0.00215065 +++++++++++++++++++++++++++++++++++++to 0.00215065
Heightened Def Con from 0.00215065 ++++++++++++++++++++++++++++++++++++++to 0.00215065
Heightened Def Con from 0.00215065 +++++++++++++++++++++++++++++++++++++to 0.00215065
Heightened Def Con from 0.00215065 ++++++++++++++++++++++++++++++++++++++to 0.00215065
Heightened Def Con from 0.00215065 +++++++++++++++++++++++++++++++++++++to 0.00215065
Heightened Def Con from 0.00215065 ++++++++++++++++++++++++++++++++++++++to 0.00215065
Heightened Def Con from 0.00215065 +++++++++++++++++++++++++++++++++++++to 0.00215065
Heightened Def Con from 0.00215065 ++++++++++++++++++++++++++++++++++++++to 0.00215065
Heightened Def Con from 0.00215065 +++++++++++++++++++++++++++++++++++++to 0.00215065
Heightened Def Con from 0.00215065 ++++++++++++++++++++++++++++++++++++++to 0.00215065
Heightened Def Con from 0.00215065 +++++++++++++++++++++++++++++++++++++to 0.00215065
Heightened Def Con from 0.00215065 ++++++++++++++++++++++++++++++++++++++to 0.00215065
Heightened Def Con from 0.00215065 +++++++++++++++++++++++++++++++++++++to 0.00215065
Heightened Def Con from 0.00215065 ++++++++++++++++++++++++++++++++++++++to 0.00215065
Heightened Def Con from 0.00215065 +++++++++++++++++++++++++++++++++++++to 0.00215065
Heightened Def Con from 0.00215065 ++++++++++++++++++++++++++++++++++++++to 0.00215065
Heightened Def Con from 0.00215065 +++++++++++++++++++++++++++++++++++++to 0.00215065
Heightened Def Con from 0.00215065 ++++++++++++++++++++++++++++++++++++++to 0.00215065
Heightened Def Con from 0.00215065 +++++++++++++++++++++++++++++++++++++to 0.00215065
Heightened Def Con from 0.00215065 ++++++++++++++++++++++++++++++++++++++to 0.00215065
Heightened Def Con from 0.00215065 +++++++++++++++++++++++++++++++++++++to 0.00215065
Heightened Def Con from 0.00215065 ++++++++++++++++++++++++++++++++++++++to 0.00215065
Heightened Def Con from 0.00215065 +++++++++++++++++++++++++++++++++++++to 0.00215065
Heightened Def Con from 0.00215065 ++++++++++++++++++++++++++++++++++++++to 0.00215065
Heightened Def Con from 0.00215065 +++++++++++++++++++++++++++++++++++++to 0.00215065
Heightened Def Con from 0.00215065 ++++++++++++++++++++++++++++++++++++++to 0.00215065
Heightened Def Con from 0.00215065 +++++++++++++++++++++++++++++++++++++to 0.00215065
Heightened Def Con from 0.00215065 ++++++++++++++++++++++++++++++++++++++to 0.00215065
Heightened Def Con from 0.00215065 +++++++++++++++++++++++++++++++++++++to 0.00215065
Heightened Def Con from 0.00215065 ++++++++++++++++++++++++++++++++++++++to 0.00215065
Heightened Def Con from 0.00215065 +++++++++++++++++++++++++++++++++++++to 0.00215065
Heightened Def Con from 0.00215065 ++++++++++++++++++++++++++++++++++++++to 0.00215065
Heightened Def Con from 0.00215065 +++++++++++++++++++++++++++++++++++++to 0.00215065
Heightened Def Con from 0.00215065 ++++++++++++++++++++++++++++++++++++++to 0.00215065
Heightened Def Con from 0.00215065 +++++++++++++++++++++++++++++++++++++to 0.00215065
Heightened Def Con from 0.00215065 ++++++++++++++++++++++++++++++++++++++to 0.00215065
Heightened Def Con from 0.00215065 +++++++++++++++++++++++++++++++++++++to 0.00215065
Heightened Def Con from 0.00215065 ++++++++++++++++++++++++++++++++++++++to 0.00215065
Heightened Def Con from 0.00215065 +++++++++++++++++++++++++++++++++++++to 0.00215065
Heightened Def Con from 0.00215065 ++++++++++++++++++++++++++++++++++++++to 0.00215065
Heightened Def Con from 0.00215065 +++++++++++++++++++++++++++++++++++++to 0.00215065
Heightened Def Con from 0.00215065 ++++++++++++++++++++++++++++++++++++++to 0.00215065
Heightened Def Con from 0.00215065 +++++++++++++++++++++++++++++++++++++to 0.00215065
Heightened Def Con from 0.00215065 ++++++++++++++++++++++++++++++++++++++to 0.00215065
Heightened Def Con from 0.00215065 +++++++++++++++++++++++++++++++++++++to 0.00215065
Heightened Def Con from 0.00215065 ++++++++++++++++++++++++++++++++++++++to 0.00215065
Heightened Def Con from 0.00215065 +++++++++++++++++++++++++++++++++++++to 0.00215065
Heightened Def Con from 0.00215065 ++++++++++++++++++++++++++++++++++++++to 0.00215065
Heightened Def Con from 0.00215065 +++++++++++++++++++++++++++++++++++++to 0.00215065
Heightened Def Con from 0.00215065 ++++++++++++++++++++++++++++++++++++++to 0.00215065
Heightened Def Con from 0.00215065 +++++++++++++++++++++++++++++++++++++to 0.00215065
Heightened Def Con from 0.00215065 ++++++++++++++++++++++++++++++++++++++to 0.00215065
Heightened Def Con from 0.00215065 +++++++++++++++++++++++++++++++++++++to 0.00215065
Heightened Def Con from 0.00215065 ++++++++++++++++++++++++++++++++++++++to 0.00215065
Heightened Def Con from 0.00215065 +++++++++++++++++++++++++++++++++++++to 0.00215065
Heightened Def Con from 0.00215065 ++++++++++++++++++++++++++++++++++++++to 0.00215065
Heightened Def Con from 0.00215065 +++++++++++++++++++++++++++++++++++++to 0.00215065
Heightened Def Con from 0.00215065 ++++++++++++++++++++++++++++++++++++++to 0.00215065
Heightened Def Con from 0.00215065 +++++++++++++++++++++++++++++++++++++to 0.00215065
Heightened Def Con from 0.00215065 ++++++++++++++++++++++++++++++++++++++to 0.00215065
Heightened Def Con from 0.00215065 +++++++++++++++++++++++++++++++++++++to 0.00215065
Heightened Def Con from 0.00215065 ++++++++++++++++++++++++++++++++++++++to 0.00215065
Heightened Def Con from 0.00215065 +++++++++++++++++++++++++++++++++++++to 0.00215065
Heightened Def Con from 0.00215065 ++++++++++++++++++++++++++++++++++++++to 0.00215065
Heightened Def Con from 0.00215065 +++++++++++++++++++++++++++++++++++++to 0.00215065
Heightened Def Con from 0.00215065 ++++++++++++++++++++++++++++++++++++++to 0.00215065
Heightened Def Con from 0.00215065 +++++++++++++++++++++++++++++++++++++to 0.00215065
Heightened Def Con from 0.00215065 ++++++++++++++++++++++++++++++++++++++to 0.00215065
Heightened Def Con from 0.00215065 +++++++++++++++++++++++++++++++++++++to 0.00215065
Heightened Def Con from 0.00215065 ++++++++++++++++++++++++++++++++++++++to 0.00215065
Heightened Def Con from 0.00215065 +++++++++++++++++++++++++++++++++++++to 0.00215065
Heightened Def Con from 0.00215065 ++++++++++++++++++++++++++++++++++++++to 0.00215065
Heightened Def Con from 0.00215065 +++++++++++++++++++++++++++++++++++++to 0.00215065
Heightened Def Con from 0.00215065 ++++++++++++++++++++++++++++++++++++++to 0.00215065
Heightened Def Con from 0.00215065 +++++++++++++++++++++++++++++++++++++to 0.00215065
Heightened Def Con from 0.00215065 ++++++++++++++++++++++++++++++++++++++to 0.00215065
Heightened Def Con from 0.00215065 +++++++++++++++++++++++++++++++++++++to 0.00215065
Heightened Def Con from 0.00215065 ++++++++++++++++++++++++++++++++++++++to 0.00215065
Heightened Def Con from 0.00215065 +++++++++++++++++++++++++++++++++++++to 0.00215065
Heightened Def Con from 0.00215065 ++++++++++++++++++++++++++++++++++++++to 0.00215065
Heightened Def Con from 0.00215065 +++++++++++++++++++++++++++++++++++++to 0.00215065
Heightened Def Con from 0.00215065 ++++++++++++++++++++++++++++++++++++++to 0.00215065
Heightened Def Con from 0.00215065 +++++++++++++++++++++++++++++++++++++to 0.00215065
Heightened Def Con from 0.00215065 ++++++++++++++++++++++++++++++++++++++to 0.00215065
Heightened Def Con from 0.00215065 +++++++++++++++++++++++++++++++++++++to 0.00215065
Heightened Def Con from 0.00215065 ++++++++++++++++++++++++++++++++++++++to 0.00215065
Heightened Def Con from 0.00215065 +++++++++++++++++++++++++++++++++++++to 0.00215065
Heightened Def Con from 0.00215065 ++++++++++++++++++++++++++++++++++++++to 0.00215065
Heightened Def Con from 0.00215065 +++++++++++++++++++++++++++++++++++++to 0.00215065
Heightened Def Con from 0.00215065 ++++++++++++++++++++++++++++++++++++++to 0.00215065
Heightened Def Con from 0.00215065 +++++++++++++++++++++++++++++++++++++to 0.00215065
Heightened Def Con from 0.00215065 ++++++++++++++++++++++++++++++++++++++to 0.00215065
Heightened Def Con from 0.00215065 +++++++++++++++++++++++++++++++++++++to 0.00215065
Heightened Def Con from 0.00215065 ++++++++++++++++++++++++++++++++++++++to 0.00215065
Heightened Def Con from 0.00215065 +++++++++++++++++++++++++++++++++++++to 0.00215065
Heightened Def Con from 0.00215065 ++++++++++++++++++++++++++++++++++++++to 0.00215065
Heightened Def Con from 0.00215065 +++++++++++++++++++++++++++++++++++++to 0.00215065
Heightened Def Con from 0.00215065 ++++++++++++++++++++++++++++++++++++++to 0.00215065
Heightened Def Con from 0.00215065 +++++++++++++++++++++++++++++++++++++to 0.00215065
Heightened Def Con from 0.00215065 ++++++++++++++++++++++++++++++++++++++to 0.00215065
Heightened Def Con from 0.00215065 +++++++++++++++++++++++++++++++++++++to 0.00215065
Heightened Def Con from 0.00215065 ++++++++++++++++++++++++++++++++++++++to 0.00215065
Heightened Def Con from 0.00215065 +++++++++++++++++++++++++++++++++++++to 0.00215065
Heightened Def Con from 0.00215065 ++++++++++++++++++++++++++++++++++++++to 0.00215065
Heightened Def Con from 0.00215065 +++++++++++++++++++++++++++++++++++++to 0.00215065
Heightened Def Con from 0.00215065 ++++++++++++++++++++++++++++++++++++++to 0.00215065
Heightened Def Con from 0.00215065 +++++++++++++++++++++++++++++++++++++to 0.00215065
Heightened Def Con from 0.00215065 ++++++++++++++++++++++++++++++++++++++to 0.00215065
Heightened Def Con from 0.00215065 +++++++++++++++++++++++++++++++++++++to 0.00215065
Heightened Def Con from 0.00215065 ++++++++++++++++++++++++++++++++++++++to 0.00215065
Heightened Def Con from 0.00215065 +++++++++++++++++++++++++++++++++++++to 0.00215065
Heightened Def Con from 0.00215065 ++++++++++++++++++++++++++++++++++++++to 0.00215065
Heightened Def Con from 0.00215065 +++++++++++++++++++++++++++++++++++++to 0.00215065
Heightened Def Con from 0.00215065 ++++++++++++++++++++++++++++++++++++++to 0.00215065
Heightened Def Con from 0.00215065 +++++++++++++++++++++++++++++++++++++to 0.00215065
Heightened Def Con from 0.00215065 ++++++++++++++++++++++++++++++++++++++to 0.00215065
Heightened Def Con from 0.00215065 +++++++++++++++++++++++++++++++++++++to 0.00215065
Heightened Def Con from 0.00215065 ++++++++++++++++++++++++++++++++++++++to 0.00215065
Heightened Def Con from 0.00215065 +++++++++++++++++++++++++++++++++++++to 0.00215065
Heightened Def Con from 0.00215065 ++++++++++++++++++++++++++++++++++++++to 0.00215065
Heightened Def Con from 0.00215065 +++++++++++++++++++++++++++++++++++++to 0.00215065
Heightened Def Con from 0.00215065 ++++++++++++++++++++++++++++++++++++++to 0.00215065
Heightened Def Con from 0.00215065 +++++++++++++++++++++++++++++++++++++to 0.00215065
Heightened Def Con from 0.00215065 ++++++++++++++++++++++++++++++++++++++to 0.00215065
Heightened Def Con from 0.00215065 +++++++++++++++++++++++++++++++++++++to 0.00215065
Heightened Def Con from 0.00215065 ++++++++++++++++++++++++++++++++++++++to 0.00215065
Heightened Def Con from 0.00215065 +++++++++++++++++++++++++++++++++++++to 0.00215065
Heightened Def Con from 0.00215065 ++++++++++++++++++++++++++++++++++++++to 0.00215065
Heightened Def Con from 0.00215065 +++++++++++++++++++++++++++++++++++++to 0.00215065
Heightened Def Con from 0.00215065 ++++++++++++++++++++++++++++++++++++++to 0.00215065
Heightened Def Con from 0.00215065 +++++++++++++++++++++++++++++++++++++to 0.00215065
Heightened Def Con from 0.00215065 ++++++++++++++++++++++++++++++++++++++to 0.00215065
Heightened Def Con from 0.00215065 +++++++++++++++++++++++++++++++++++++to 0.00215065
Heightened Def Con from 0.00215065 ++++++++++++++++++++++++++++++++++++++to 0.00215065
Heightened Def Con from 0.00215065 +++++++++++++++++++++++++++++++++++++to 0.00215065
Heightened Def Con from 0.00215065 ++++++++++++++++++++++++++++++++++++++to 0.00215065
Heightened Def Con from 0.00215065 +++++++++++++++++++++++++++++++++++++to 0.00215065
Heightened Def Con from 0.00215065 ++++++++++++++++++++++++++++++++++++++++++++++++++Fatal Error: Analysis:  Time step too small; time = 0.00215065, timestep = 1.25039e-018: trouble with u1:dx-instance d:u1:10

