Circuit: * C:\Users\Nanodyn - Spare\OneDrive - Nanodyn\Desktop\GIT repository\Waveform-generator\LTspice Circuits\Signal level shifting circuit.asc

Instance "m:u2:6": Length shorter than recommended for a level 2 MOSFET.
Instance "m:u2:5": Length shorter than recommended for a level 2 MOSFET.
Direct Newton iteration failed to find .op point.  (Use ".option noopiter" to skip.)
Starting Gmin stepping
Gmin = 10
Gmin = 1.07374
Gmin = 0.115292
Gmin = 0.0123794
Gmin = 0.00132923
vernier = 0.5
vernier = 0.25
vernier = 0.125
vernier = 0.0625
Gmin = 0.00100083
vernier = 0.03125
vernier = 0.015625
vernier = 0.0078125
vernier = 0.00390625
vernier = 0.00195313
Gmin = 0.00100083
vernier = 0.000976563
vernier = 0.000488281
Gmin = 0
Gmin stepping failed

Starting source stepping with srcstepmethod=0
Source Step = 3.0303%
Source Step = 33.3333%
Source Step = 42.6166%
Source Step = 42.6462%
Source Step = 42.6758%
Source Step = 42.7054%
Source Step = 42.735%
Source Step = 42.7646%
vernier = 0.00146484
Source Step = 42.8089%
Source Step = 42.8533%
Source Step = 42.8977%
Source Step = 42.9421%
Source Step = 42.9865%
vernier = 0.00219727
Source Step = 43.0509%
Source Step = 43.1175%
Source Step = 43.184%
Source Step = 43.2506%
Source Step = 43.3172%
vernier = 0.0032959
Source Step = 43.4104%
Source Step = 43.5103%
Source Step = 43.6102%
Source Step = 43.71%
Source Step = 43.8099%
vernier = 0.00494385
Source Step = 43.9448%
Source Step = 44.0946%
Source Step = 44.2444%
Source Step = 44.3942%
Source Step = 44.544%
vernier = 0.00741577
Source Step = 44.7388%
Source Step = 44.9635%
Source Step = 45.1882%
Source Step = 45.4129%
Source Step = 45.6377%
vernier = 0.0111237
Source Step = 45.9186%
Source Step = 46.2556%
Source Step = 46.5927%
Source Step = 46.9298%
Source Step = 47.2669%
vernier = 0.0166855
Source Step = 47.6714%
Source Step = 48.177%
Source Step = 48.6826%
Source Step = 49.1882%
Source Step = 49.6939%
vernier = 0.0250282
Source Step = 50.2753%
Source Step = 51.0337%
Source Step = 51.7922%
Source Step = 52.5506%
Source Step = 53.309%
vernier = 0.0375423
Source Step = 54.1433%
Source Step = 55.281%
Source Step = 56.4186%
Source Step = 57.5563%
Source Step = 58.6939%
vernier = 0.0563135
Source Step = 59.8884%
Source Step = 61.5949%
Source Step = 63.3014%
Source Step = 65.0078%
Source Step = 66.7143%
Source Step = 68.4208%
vernier = 0.0844703
Source Step = 70.9805%
Source Step = 73.5402%
Source Step = 76.0999%
Source Step = 78.6596%
Source Step = 81.2193%
vernier = 0.126705
Source Step = 84.9309%
Source Step = 88.7704%
Source Step = 92.61%
Source Step = 96.4496%
Source Step = 100%
Source stepping succeeded in finding the operating point.

Heightened Def Con from 5.06692e-005 to 5.06692e-005
Heightened Def Con from 5.06692e-005 to 5.06692e-005
Heightened Def Con from 5.06692e-005 ++to 5.06692e-005
Heightened Def Con from 5.06692e-005 to 5.06692e-005
Heightened Def Con from 5.06692e-005 ++to 5.06692e-005
Heightened Def Con from 5.06692e-005 to 5.06692e-005
Heightened Def Con from 5.06692e-005 to 5.06692e-005
Heightened Def Con from 5.06692e-005 to 5.06692e-005
Heightened Def Con from 5.06692e-005 to 5.06692e-005
Heightened Def Con from 5.06692e-005 to 5.06692e-005
Heightened Def Con from 5.06692e-005 to 5.06692e-005
Heightened Def Con from 5.06692e-005 to 5.06692e-005
Heightened Def Con from 5.06692e-005 to 5.06692e-005
Heightened Def Con from 5.06692e-005 +++++++++++++++++++to 5.06703e-005
Heightened Def Con from 5.06703e-005 ++++++++++++to 5.06714e-005
Heightened Def Con from 5.06714e-005 ++++++++to 5.06715e-005
Heightened Def Con from 5.06715e-005 +++++++to 5.0672e-005
Heightened Def Con from 5.0672e-005 +++++++to 5.0672e-005
Heightened Def Con from 5.0672e-005 +++++++to 5.0672e-005
Heightened Def Con from 5.0672e-005 +++++++to 5.0672e-005
Heightened Def Con from 0.000100717 to 0.000100717
Heightened Def Con from 0.000100717 to 0.000100717
Heightened Def Con from 0.000100717 +to 0.000100717
Heightened Def Con from 0.000100717 to 0.000100717
Heightened Def Con from 0.000100717 to 0.000100717
Heightened Def Con from 0.000100717 to 0.000100717
Heightened Def Con from 0.000100717 +to 0.000100717
Heightened Def Con from 0.000100717 to 0.000100717
Heightened Def Con from 0.000100717 to 0.000100717
Heightened Def Con from 0.000100717 to 0.000100717
Heightened Def Con from 0.000100717 to 0.000100717
Heightened Def Con from 0.000100717 to 0.000100717
Heightened Def Con from 0.000100717 to 0.000100717
Heightened Def Con from 0.000100717 to 0.000100717
Heightened Def Con from 0.000100717 to 0.000100717
Heightened Def Con from 0.000100717 to 0.000100717
Heightened Def Con from 0.000100717 to 0.000100717
Heightened Def Con from 0.000100717 to 0.000100717
Heightened Def Con from 0.000100717 to 0.000100717
Heightened Def Con from 0.000100717 +to 0.000100717
Heightened Def Con from 0.000100717 to 0.000100717
Heightened Def Con from 0.000100717 to 0.000100717
Heightened Def Con from 0.000100717 +to 0.000100717
Heightened Def Con from 0.000100717 to 0.000100717
Heightened Def Con from 0.000100717 to 0.000100717
Heightened Def Con from 0.000100717 +to 0.000100717
Heightened Def Con from 0.000100717 to 0.000100717
Heightened Def Con from 0.000100717 to 0.000100717
Heightened Def Con from 0.000100717 to 0.000100717
Heightened Def Con from 0.000100717 +to 0.000100717
Heightened Def Con from 0.000100717 to 0.000100717
Heightened Def Con from 0.000100717 to 0.000100717
Heightened Def Con from 0.000100717 to 0.000100717
Heightened Def Con from 0.000100717 to 0.000100717
Heightened Def Con from 0.000100717 to 0.000100717
Heightened Def Con from 0.000100717 +to 0.000100717
Heightened Def Con from 0.000100717 +to 0.000100717
Heightened Def Con from 0.000100717 to 0.000100717
Heightened Def Con from 0.000100717 +to 0.000100717
Heightened Def Con from 0.000100717 to 0.000100717
Heightened Def Con from 0.000100717 +to 0.000100717
Heightened Def Con from 0.000100717 to 0.000100717
Heightened Def Con from 0.000100717 to 0.000100717
Heightened Def Con from 0.000100717 to 0.000100717
Heightened Def Con from 0.000100717 to 0.000100717
Heightened Def Con from 0.000100717 to 0.000100717
Heightened Def Con from 0.000100717 to 0.000100717
Heightened Def Con from 0.000100717 to 0.000100717
Heightened Def Con from 0.000100717 to 0.000100717
Heightened Def Con from 0.000100717 to 0.000100717
Heightened Def Con from 0.000100717 to 0.000100717
Heightened Def Con from 0.000100717 to 0.000100717
Heightened Def Con from 0.000100717 to 0.000100717
Heightened Def Con from 0.000100717 to 0.000100717
Heightened Def Con from 0.000100717 to 0.000100717
Heightened Def Con from 0.000100717 to 0.000100717
Heightened Def Con from 0.000100717 to 0.000100717
Heightened Def Con from 0.000100717 +to 0.000100717
Heightened Def Con from 0.000100717 to 0.000100717
Heightened Def Con from 0.000100717 to 0.000100717
Heightened Def Con from 0.000100717 to 0.000100717
Heightened Def Con from 0.000100717 to 0.000100717
Heightened Def Con from 0.000100717 +to 0.000100717
Heightened Def Con from 0.000100717 +to 0.000100717
Heightened Def Con from 0.000100717 to 0.000100717
Heightened Def Con from 0.000100717 to 0.000100717
Heightened Def Con from 0.000100717 to 0.000100717
Heightened Def Con from 0.000100717 +to 0.000100717
Heightened Def Con from 0.000100717 to 0.000100717
Heightened Def Con from 0.000100717 to 0.000100717
Heightened Def Con from 0.000100717 to 0.000100717
Heightened Def Con from 0.000100717 +to 0.000100717
Heightened Def Con from 0.000100717 to 0.000100717
Heightened Def Con from 0.000100717 +to 0.000100717
Heightened Def Con from 0.000100717 to 0.000100717
Heightened Def Con from 0.000100717 to 0.000100717
Heightened Def Con from 0.000100717 to 0.000100717
Heightened Def Con from 0.000100717 +to 0.000100717
Heightened Def Con from 0.000100717 to 0.000100717
Heightened Def Con from 0.000100717 to 0.000100717
Heightened Def Con from 0.000100717 +to 0.000100717
Heightened Def Con from 0.000100717 +to 0.000100717
Heightened Def Con from 0.000100717 to 0.000100717
Heightened Def Con from 0.000100717 to 0.000100717
Heightened Def Con from 0.000100717 to 0.000100717
Heightened Def Con from 0.000100717 to 0.000100717
Heightened Def Con from 0.000100717 to 0.000100717
Heightened Def Con from 0.000100717 +to 0.000100717
Heightened Def Con from 0.000100717 to 0.000100717
Heightened Def Con from 0.000100717 to 0.000100717
Heightened Def Con from 0.000100717 to 0.000100717
Heightened Def Con from 0.000100717 +to 0.000100717
Heightened Def Con from 0.000100717 +to 0.000100717
Heightened Def Con from 0.000100717 to 0.000100717
Heightened Def Con from 0.000100717 to 0.000100717
Heightened Def Con from 0.000100717 to 0.000100717
Heightened Def Con from 0.000100717 to 0.000100717
Heightened Def Con from 0.000100717 to 0.000100717
Heightened Def Con from 0.000100717 to 0.000100717
Heightened Def Con from 0.000100717 to 0.000100717
Heightened Def Con from 0.000100717 to 0.000100717
Heightened Def Con from 0.000100717 to 0.000100717
Heightened Def Con from 0.000100717 to 0.000100717
Heightened Def Con from 0.000100717 to 0.000100717
Heightened Def Con from 0.000100717 to 0.000100717
Heightened Def Con from 0.000100717 to 0.000100717
Heightened Def Con from 0.000100717 +to 0.000100717
Heightened Def Con from 0.000100717 to 0.000100717
Heightened Def Con from 0.000100717 to 0.000100717
Heightened Def Con from 0.000100717 to 0.000100717
Heightened Def Con from 0.000100717 to 0.000100717
Heightened Def Con from 0.000100717 to 0.000100717
Heightened Def Con from 0.000100717 ++to 0.000100717
Heightened Def Con from 0.000100717 to 0.000100717
Heightened Def Con from 0.000100717 +to 0.000100717
Heightened Def Con from 0.000100717 +to 0.000100717
Heightened Def Con from 0.000100717 to 0.000100717
Heightened Def Con from 0.000100717 to 0.000100717
Heightened Def Con from 0.000100717 to 0.000100717
Heightened Def Con from 0.000100717 to 0.000100717
Heightened Def Con from 0.000100717 to 0.000100717
Heightened Def Con from 0.000100717 +to 0.000100717
Heightened Def Con from 0.000100717 +to 0.000100717
Heightened Def Con from 0.000100717 to 0.000100717
Heightened Def Con from 0.000100717 to 0.000100717
Heightened Def Con from 0.000100717 +to 0.000100717
Heightened Def Con from 0.000100717 to 0.000100717
Heightened Def Con from 0.000100717 to 0.000100717
Heightened Def Con from 0.000100717 to 0.000100717
Heightened Def Con from 0.000100717 to 0.000100717
Heightened Def Con from 0.000100717 +to 0.000100717
Heightened Def Con from 0.000100717 +to 0.000100717
Heightened Def Con from 0.000100717 to 0.000100717
Heightened Def Con from 0.000100717 to 0.000100717
Heightened Def Con from 0.000100717 to 0.000100717
Heightened Def Con from 0.000100717 to 0.000100717
Heightened Def Con from 0.000100717 to 0.000100717
Heightened Def Con from 0.000100717 ++to 0.000100717
Heightened Def Con from 0.000100717 to 0.000100717
Heightened Def Con from 0.000100717 to 0.000100717
Heightened Def Con from 0.000100717 to 0.000100717
Heightened Def Con from 0.000100717 to 0.000100717
Heightened Def Con from 0.000100717 +to 0.000100717
Heightened Def Con from 0.000100717 +to 0.000100717
Heightened Def Con from 0.000100717 to 0.000100717
Heightened Def Con from 0.000100717 +to 0.000100717
Heightened Def Con from 0.000100717 +to 0.000100717
Heightened Def Con from 0.000100717 to 0.000100717
Heightened Def Con from 0.000100717 +to 0.000100717
Heightened Def Con from 0.000100717 to 0.000100717
Heightened Def Con from 0.000100717 to 0.000100717
Heightened Def Con from 0.000100717 +to 0.000100717
Heightened Def Con from 0.000100717 to 0.000100717
Heightened Def Con from 0.000100717 to 0.000100717
Heightened Def Con from 0.000100717 to 0.000100717
Heightened Def Con from 0.000100717 to 0.000100717
Heightened Def Con from 0.000100717 to 0.000100717
Heightened Def Con from 0.000100717 +to 0.000100717
Heightened Def Con from 0.000100717 +to 0.000100717
Heightened Def Con from 0.000100717 +to 0.000100717
Heightened Def Con from 0.000100717 to 0.000100717
Heightened Def Con from 0.000100717 +to 0.000100717
Heightened Def Con from 0.000100717 to 0.000100717
Heightened Def Con from 0.000100717 to 0.000100717
Heightened Def Con from 0.000100717 ++to 0.000100717
Heightened Def Con from 0.000100717 to 0.000100717
Heightened Def Con from 0.000100717 +++to 0.000100717
Heightened Def Con from 0.000100717 to 0.000100717
Heightened Def Con from 0.000100717 to 0.000100717
Heightened Def Con from 0.000100717 to 0.000100717
Heightened Def Con from 0.000100717 to 0.000100717
Heightened Def Con from 0.000100717 to 0.000100717
Heightened Def Con from 0.000100717 to 0.000100717
Heightened Def Con from 0.000100717 to 0.000100717
Heightened Def Con from 0.000100717 to 0.000100717
Heightened Def Con from 0.000100717 to 0.000100717
Heightened Def Con from 0.000100717 to 0.000100717
Heightened Def Con from 0.000100717 to 0.000100717
Heightened Def Con from 0.000100717 to 0.000100717
Heightened Def Con from 0.000100717 to 0.000100717
Heightened Def Con from 0.000100717 to 0.000100717
Heightened Def Con from 0.000100717 to 0.000100717
Heightened Def Con from 0.000100717 to 0.000100717
Heightened Def Con from 0.000100717 ++to 0.000100717
Heightened Def Con from 0.000100717 to 0.000100717
Heightened Def Con from 0.000100717 to 0.000100717
Heightened Def Con from 0.000100717 +to 0.000100717
Heightened Def Con from 0.000100717 to 0.000100717
Heightened Def Con from 0.000100717 to 0.000100717
Heightened Def Con from 0.000100717 to 0.000100717
Heightened Def Con from 0.000100717 to 0.000100717
Heightened Def Con from 0.000100717 to 0.000100717
Heightened Def Con from 0.000100717 to 0.000100717
Heightened Def Con from 0.000100717 to 0.000100717
Heightened Def Con from 0.000100717 ++to 0.000100717
Heightened Def Con from 0.000100717 to 0.000100717
Heightened Def Con from 0.000100717 to 0.000100717
Heightened Def Con from 0.000100717 +++to 0.000100717
Heightened Def Con from 0.000100717 to 0.000100717
Heightened Def Con from 0.000100717 to 0.000100717
Heightened Def Con from 0.000100717 to 0.000100717
Heightened Def Con from 0.000100717 to 0.000100717
Heightened Def Con from 0.000100717 +to 0.000100717
Heightened Def Con from 0.000100717 to 0.000100717
Heightened Def Con from 0.000100717 to 0.000100717
Heightened Def Con from 0.000100717 +to 0.000100717
Heightened Def Con from 0.000100717 to 0.000100717
Heightened Def Con from 0.000100717 to 0.000100717
Heightened Def Con from 0.000100717 to 0.000100717
Heightened Def Con from 0.000100717 to 0.000100717
Heightened Def Con from 0.000100717 to 0.000100717
Heightened Def Con from 0.000100717 to 0.000100717
Heightened Def Con from 0.000100717 to 0.000100717
Heightened Def Con from 0.000100717 to 0.000100717
Heightened Def Con from 0.000100717 +to 0.000100717
Heightened Def Con from 0.000100717 to 0.000100717
Heightened Def Con from 0.000100717 to 0.000100717
Heightened Def Con from 0.000100717 to 0.000100717
Heightened Def Con from 0.000100717 ++to 0.000100717
Heightened Def Con from 0.000100717 to 0.000100717
Heightened Def Con from 0.000100717 to 0.000100717
Heightened Def Con from 0.000100717 +to 0.000100717
Heightened Def Con from 0.000100717 +to 0.000100717
Heightened Def Con from 0.000100717 +to 0.000100717
Heightened Def Con from 0.000100717 to 0.000100717
Heightened Def Con from 0.000100717 +to 0.000100717
Heightened Def Con from 0.000100717 to 0.000100717
Heightened Def Con from 0.000100717 ++to 0.000100717
Heightened Def Con from 0.000100717 to 0.000100717
Heightened Def Con from 0.000100717 ++to 0.000100717
Heightened Def Con from 0.000100717 to 0.000100717
Heightened Def Con from 0.000100717 to 0.000100717
Heightened Def Con from 0.000100717 ++to 0.000100717
Heightened Def Con from 0.000100717 to 0.000100717
Heightened Def Con from 0.000100717 to 0.000100717
Heightened Def Con from 0.000100717 ++to 0.000100717
Heightened Def Con from 0.000100717 to 0.000100717
Heightened Def Con from 0.000100717 +to 0.000100717
Heightened Def Con from 0.000100717 to 0.000100717
Heightened Def Con from 0.000100717 to 0.000100717
Heightened Def Con from 0.000100717 to 0.000100717
Heightened Def Con from 0.000100717 ++to 0.000100717
Heightened Def Con from 0.000100717 to 0.000100717
Heightened Def Con from 0.000100717 to 0.000100717
Heightened Def Con from 0.000100717 to 0.000100717
Heightened Def Con from 0.000100717 to 0.000100717
Heightened Def Con from 0.000100717 to 0.000100717
Heightened Def Con from 0.000100717 +++to 0.000100717
Heightened Def Con from 0.000100717 to 0.000100717
Heightened Def Con from 0.000100717 to 0.000100717
Heightened Def Con from 0.000100717 +++to 0.000100717
Heightened Def Con from 0.000100717 to 0.000100717
Heightened Def Con from 0.000100717 to 0.000100717
Heightened Def Con from 0.000100717 to 0.000100717
Heightened Def Con from 0.000100717 to 0.000100717
Heightened Def Con from 0.000100717 +to 0.000100717
Heightened Def Con from 0.000100717 to 0.000100717
Heightened Def Con from 0.000100717 to 0.000100717
Heightened Def Con from 0.000100717 +to 0.000100717
Heightened Def Con from 0.000100717 to 0.000100717
Heightened Def Con from 0.000100717 to 0.000100717
Heightened Def Con from 0.000100717 to 0.000100717
Heightened Def Con from 0.000100717 to 0.000100717
Heightened Def Con from 0.000100717 to 0.000100717
Heightened Def Con from 0.000100717 to 0.000100717
Heightened Def Con from 0.000100717 to 0.000100717
Heightened Def Con from 0.000100717 to 0.000100717
Heightened Def Con from 0.000100717 to 0.000100717
Heightened Def Con from 0.000100717 ++to 0.000100717
Heightened Def Con from 0.000100717 to 0.000100717
Heightened Def Con from 0.000100717 +to 0.000100717
Heightened Def Con from 0.000100717 +to 0.000100717
Heightened Def Con from 0.000100717 to 0.000100717
Heightened Def Con from 0.000100717 to 0.000100717
Heightened Def Con from 0.000100717 to 0.000100717
Heightened Def Con from 0.000100717 to 0.000100717
Heightened Def Con from 0.000100717 to 0.000100717
Heightened Def Con from 0.000100717 ++to 0.000100717
Heightened Def Con from 0.000100717 to 0.000100717
Heightened Def Con from 0.000100717 to 0.000100717
Heightened Def Con from 0.000100717 to 0.000100717
Heightened Def Con from 0.000100717 to 0.000100717
Heightened Def Con from 0.000100717 to 0.000100717
Heightened Def Con from 0.000100717 to 0.000100717
Heightened Def Con from 0.000100717 to 0.000100717
Heightened Def Con from 0.000100717 to 0.000100717
Heightened Def Con from 0.000100717 to 0.000100717
Heightened Def Con from 0.000100717 to 0.000100717
Heightened Def Con from 0.000100717 to 0.000100717
Heightened Def Con from 0.000100717 ++to 0.000100717
Heightened Def Con from 0.000100717 to 0.000100717
Heightened Def Con from 0.000100717 +to 0.000100717
Heightened Def Con from 0.000100717 +to 0.000100717
Heightened Def Con from 0.000100717 to 0.000100717
Heightened Def Con from 0.000100717 to 0.000100717
Heightened Def Con from 0.000100717 to 0.000100717
Heightened Def Con from 0.000100717 to 0.000100717
Heightened Def Con from 0.000100717 to 0.000100717
Heightened Def Con from 0.000100717 +to 0.000100717
Heightened Def Con from 0.000100717 +to 0.000100717
Heightened Def Con from 0.000100717 to 0.000100717
Heightened Def Con from 0.000100717 to 0.000100717
Heightened Def Con from 0.000100717 to 0.000100717
Heightened Def Con from 0.000100717 to 0.000100717
Heightened Def Con from 0.000100717 to 0.000100717
Heightened Def Con from 0.000100717 +to 0.000100717
Heightened Def Con from 0.000100717 to 0.000100717
Heightened Def Con from 0.000100717 to 0.000100717
Heightened Def Con from 0.000100717 to 0.000100717
Heightened Def Con from 0.000100717 to 0.000100717
Heightened Def Con from 0.000100717 to 0.000100717
Heightened Def Con from 0.000100717 +to 0.000100717
Heightened Def Con from 0.000100717 ++to 0.000100717
Heightened Def Con from 0.000100717 to 0.000100717
Heightened Def Con from 0.000100717 to 0.000100717
Heightened Def Con from 0.000100717 to 0.000100717
Heightened Def Con from 0.000100717 to 0.000100717
Heightened Def Con from 0.000100717 to 0.000100717
Heightened Def Con from 0.000100717 +to 0.000100717
Heightened Def Con from 0.000100717 +to 0.000100717
Heightened Def Con from 0.000100717 to 0.000100717
Heightened Def Con from 0.000100717 to 0.000100717
Heightened Def Con from 0.000100717 to 0.000100717
Heightened Def Con from 0.000100717 to 0.000100717
Heightened Def Con from 0.000100717 to 0.000100717
Heightened Def Con from 0.000100717 +to 0.000100717
Heightened Def Con from 0.000100717 ++to 0.000100717
Heightened Def Con from 0.000100717 to 0.000100717
Heightened Def Con from 0.000100717 to 0.000100717
Heightened Def Con from 0.000100717 to 0.000100717
Heightened Def Con from 0.000100717 to 0.000100717
Heightened Def Con from 0.000100717 ++to 0.000100717
Heightened Def Con from 0.000100717 to 0.000100717
Heightened Def Con from 0.000100717 to 0.000100717
Heightened Def Con from 0.000100717 to 0.000100717
Heightened Def Con from 0.000100717 to 0.000100717
Heightened Def Con from 0.000100717 to 0.000100717
Heightened Def Con from 0.000100717 to 0.000100717
Heightened Def Con from 0.000100717 to 0.000100717
Heightened Def Con from 0.000100717 to 0.000100717
Heightened Def Con from 0.000100717 to 0.000100717
Heightened Def Con from 0.000100717 ++to 0.000100717
Heightened Def Con from 0.000100717 to 0.000100717
Heightened Def Con from 0.000100717 to 0.000100717
Heightened Def Con from 0.000100717 to 0.000100717
Heightened Def Con from 0.000100717 to 0.000100717
Heightened Def Con from 0.000100717 to 0.000100717
Heightened Def Con from 0.000100717 to 0.000100717
Heightened Def Con from 0.000100717 to 0.000100717
Heightened Def Con from 0.000100717 ++to 0.000100717
Heightened Def Con from 0.000100717 to 0.000100717
Heightened Def Con from 0.000100717 to 0.000100717
Heightened Def Con from 0.000100717 ++to 0.000100717
Heightened Def Con from 0.000100717 to 0.000100717
Heightened Def Con from 0.000100717 +to 0.000100717
Heightened Def Con from 0.000100717 to 0.000100717
Heightened Def Con from 0.000100717 to 0.000100717
Heightened Def Con from 0.000100717 to 0.000100717
Heightened Def Con from 0.000100717 to 0.000100717
Heightened Def Con from 0.000100717 to 0.000100717
Heightened Def Con from 0.000100717 to 0.000100717
Heightened Def Con from 0.000100717 to 0.000100717
Heightened Def Con from 0.000100717 to 0.000100717
Heightened Def Con from 0.000100717 to 0.000100717
Heightened Def Con from 0.000100717 to 0.000100717
Heightened Def Con from 0.000100717 to 0.000100717
Heightened Def Con from 0.000100717 to 0.000100717
Heightened Def Con from 0.000100717 to 0.000100717
Heightened Def Con from 0.000100717 to 0.000100717
Heightened Def Con from 0.000100717 to 0.000100717
Heightened Def Con from 0.000100717 to 0.000100717
Heightened Def Con from 0.000100717 to 0.000100717
Heightened Def Con from 0.000100717 to 0.000100717
Heightened Def Con from 0.000100717 to 0.000100717
Heightened Def Con from 0.000100717 to 0.000100717
Heightened Def Con from 0.000100717 ++to 0.000100717
Heightened Def Con from 0.000100717 to 0.000100717
Heightened Def Con from 0.000100717 to 0.000100717
Heightened Def Con from 0.000100717 to 0.000100717
Heightened Def Con from 0.000100717 to 0.000100717
Heightened Def Con from 0.000100717 to 0.000100717
Heightened Def Con from 0.000100717 to 0.000100717
Heightened Def Con from 0.000100717 to 0.000100717
Heightened Def Con from 0.000100717 +to 0.000100717
Heightened Def Con from 0.000100717 to 0.000100717
Heightened Def Con from 0.000100717 to 0.000100717
Heightened Def Con from 0.000100717 to 0.000100717
Heightened Def Con from 0.000100717 to 0.000100717
Heightened Def Con from 0.000100717 to 0.000100717
Heightened Def Con from 0.000100717 to 0.000100717
Heightened Def Con from 0.000100717 to 0.000100717
Heightened Def Con from 0.000100717 to 0.000100717
Heightened Def Con from 0.000100717 to 0.000100717
Heightened Def Con from 0.000100717 to 0.000100717
Heightened Def Con from 0.000100717 to 0.000100717
Heightened Def Con from 0.000100717 to 0.000100717
Heightened Def Con from 0.000100717 to 0.000100717
Heightened Def Con from 0.000100717 to 0.000100717
Heightened Def Con from 0.000150669 to 0.000150669
Heightened Def Con from 0.000150669 to 0.000150669
Heightened Def Con from 0.000150669 to 0.000150669
Heightened Def Con from 0.000150669 to 0.000150669
Heightened Def Con from 0.000150669 to 0.000150669
Heightened Def Con from 0.000150669 to 0.000150669
Heightened Def Con from 0.000150669 +to 0.000150669
Heightened Def Con from 0.000150669 to 0.000150669
Heightened Def Con from 0.000150669 to 0.000150669
Heightened Def Con from 0.000150669 to 0.000150669
Heightened Def Con from 0.000150669 to 0.000150669
Heightened Def Con from 0.000150669 ++to 0.000150669
Heightened Def Con from 0.000150669 to 0.000150669
Heightened Def Con from 0.000150669 to 0.000150669
Heightened Def Con from 0.000150669 to 0.000150669
Heightened Def Con from 0.000150669 to 0.000150669
Heightened Def Con from 0.000150669 to 0.000150669
Heightened Def Con from 0.000150669 to 0.000150669
Heightened Def Con from 0.000150669 to 0.000150669
Heightened Def Con from 0.000150669 to 0.000150669
Heightened Def Con from 0.000150669 ++to 0.000150669
Heightened Def Con from 0.000150669 to 0.000150669
Heightened Def Con from 0.000150669 to 0.000150669
Heightened Def Con from 0.000150669 to 0.000150669
Heightened Def Con from 0.000150669 to 0.000150669
Heightened Def Con from 0.000150669 to 0.000150669
Heightened Def Con from 0.000150669 to 0.000150669
Heightened Def Con from 0.000150669 to 0.000150669
Heightened Def Con from 0.000150669 to 0.000150669
Heightened Def Con from 0.000150669 to 0.000150669
Heightened Def Con from 0.000150669 to 0.000150669
Heightened Def Con from 0.000150669 ++to 0.000150669
Heightened Def Con from 0.000150669 to 0.000150669
Heightened Def Con from 0.000150669 to 0.000150669
Heightened Def Con from 0.000150669 to 0.000150669
Heightened Def Con from 0.000150669 to 0.000150669
Heightened Def Con from 0.000150669 to 0.000150669
Heightened Def Con from 0.000150669 to 0.000150669
Heightened Def Con from 0.000150669 to 0.000150669
Heightened Def Con from 0.000150669 to 0.000150669
Heightened Def Con from 0.000150669 ++to 0.000150669
Heightened Def Con from 0.000150669 to 0.000150669
Heightened Def Con from 0.000150669 to 0.000150669
Heightened Def Con from 0.000150669 to 0.000150669
Heightened Def Con from 0.000150669 +++to 0.000150669
Heightened Def Con from 0.000150669 to 0.000150669
Heightened Def Con from 0.000150669 to 0.000150669
Heightened Def Con from 0.000150669 to 0.000150669
Heightened Def Con from 0.000150669 to 0.000150669
Heightened Def Con from 0.000150669 to 0.000150669
Heightened Def Con from 0.000150669 to 0.000150669
Heightened Def Con from 0.000150669 +++++++++++++++++++to 0.00015067
Heightened Def Con from 0.00015067 +++++++++++to 0.000150671
Heightened Def Con from 0.000150671 ++++++++to 0.000150672
Heightened Def Con from 0.000150672 +++++++to 0.000150672
Heightened Def Con from 0.000150672 +++++++to 0.000150672
Heightened Def Con from 0.000150672 +++++++to 0.000150672
Heightened Def Con from 0.000200717 to 0.000200717
Heightened Def Con from 0.000200717 to 0.000200717
Heightened Def Con from 0.000200717 to 0.000200717
Heightened Def Con from 0.000200717 +to 0.000200717
Heightened Def Con from 0.000200717 to 0.000200717
Heightened Def Con from 0.000200717 +to 0.000200717
Heightened Def Con from 0.000200717 +to 0.000200717
Heightened Def Con from 0.000200717 to 0.000200717
Heightened Def Con from 0.000200717 to 0.000200717
Heightened Def Con from 0.000200717 +to 0.000200717
Heightened Def Con from 0.000200717 to 0.000200717
Heightened Def Con from 0.000200717 to 0.000200717
Heightened Def Con from 0.000200717 to 0.000200717
Heightened Def Con from 0.000200717 to 0.000200717
Heightened Def Con from 0.000200717 to 0.000200717
Heightened Def Con from 0.000200717 to 0.000200717
Heightened Def Con from 0.000200717 to 0.000200717
Heightened Def Con from 0.000200717 to 0.000200717
Heightened Def Con from 0.000200717 to 0.000200717
Heightened Def Con from 0.000200717 +++to 0.000200717
Heightened Def Con from 0.000200717 to 0.000200717
Heightened Def Con from 0.000200717 +to 0.000200717
Heightened Def Con from 0.000200717 to 0.000200717
Heightened Def Con from 0.000200717 to 0.000200717
Heightened Def Con from 0.000200717 to 0.000200717
Heightened Def Con from 0.000200717 +to 0.000200717
Heightened Def Con from 0.000200717 +to 0.000200717
Heightened Def Con from 0.000200717 +to 0.000200717
Heightened Def Con from 0.000200717 to 0.000200717
Heightened Def Con from 0.000200717 to 0.000200717
Heightened Def Con from 0.000200717 to 0.000200717
Heightened Def Con from 0.000200717 to 0.000200717
Heightened Def Con from 0.000200717 to 0.000200717
Heightened Def Con from 0.000200717 to 0.000200717
Heightened Def Con from 0.000200717 to 0.000200717
Heightened Def Con from 0.000200717 to 0.000200717
Heightened Def Con from 0.000200717 to 0.000200717
Heightened Def Con from 0.000200717 to 0.000200717
Heightened Def Con from 0.000200717 +++to 0.000200717
Heightened Def Con from 0.000200717 to 0.000200717
Heightened Def Con from 0.000200717 +++to 0.000200717
Heightened Def Con from 0.000200717 to 0.000200717
Heightened Def Con from 0.000200717 ++to 0.000200717
Heightened Def Con from 0.000200717 to 0.000200717
Heightened Def Con from 0.000200717 to 0.000200717
Heightened Def Con from 0.000200717 +to 0.000200717
Heightened Def Con from 0.000200717 +to 0.000200717
Heightened Def Con from 0.000200717 +to 0.000200717
Heightened Def Con from 0.000200717 to 0.000200717
Heightened Def Con from 0.000200717 to 0.000200717
Heightened Def Con from 0.000200717 to 0.000200717
Heightened Def Con from 0.000200717 to 0.000200717
Heightened Def Con from 0.000200717 to 0.000200717
Heightened Def Con from 0.000200717 to 0.000200717
Heightened Def Con from 0.000200717 +++to 0.000200717
Heightened Def Con from 0.000200717 to 0.000200717
Heightened Def Con from 0.000200717 to 0.000200717
Heightened Def Con from 0.000200717 to 0.000200717
Heightened Def Con from 0.000200717 to 0.000200717
Heightened Def Con from 0.000200717 to 0.000200717
Heightened Def Con from 0.000200717 to 0.000200717
Heightened Def Con from 0.000200717 to 0.000200717
Heightened Def Con from 0.000200717 to 0.000200717
Heightened Def Con from 0.000200717 to 0.000200717
Heightened Def Con from 0.000200717 to 0.000200717
Heightened Def Con from 0.000200717 to 0.000200717
Heightened Def Con from 0.000200717 to 0.000200717
Heightened Def Con from 0.000200717 to 0.000200717
Heightened Def Con from 0.000200717 to 0.000200717
Heightened Def Con from 0.000200717 to 0.000200717
Heightened Def Con from 0.000200717 +to 0.000200717
Heightened Def Con from 0.000200717 ++to 0.000200717
Heightened Def Con from 0.000200717 to 0.000200717
Heightened Def Con from 0.000200717 ++++to 0.000200717
Heightened Def Con from 0.000200717 to 0.000200717
Heightened Def Con from 0.000200717 to 0.000200717
Heightened Def Con from 0.000200717 to 0.000200717
Heightened Def Con from 0.000200717 to 0.000200717
Heightened Def Con from 0.000200717 to 0.000200717
Heightened Def Con from 0.000200717 to 0.000200717
Heightened Def Con from 0.000200717 +to 0.000200717
Heightened Def Con from 0.000200717 to 0.000200717
Heightened Def Con from 0.000200717 to 0.000200717
Heightened Def Con from 0.000200717 to 0.000200717
Heightened Def Con from 0.000200717 +to 0.000200717
Heightened Def Con from 0.000200717 to 0.000200717
Heightened Def Con from 0.000200717 to 0.000200717
Heightened Def Con from 0.000200717 to 0.000200717
Heightened Def Con from 0.000200717 to 0.000200717
Heightened Def Con from 0.000200717 to 0.000200717
Heightened Def Con from 0.000200717 to 0.000200717
Heightened Def Con from 0.000200717 to 0.000200717
Heightened Def Con from 0.000200717 to 0.000200717
Heightened Def Con from 0.000200717 ++to 0.000200717
Heightened Def Con from 0.000200717 to 0.000200717
Heightened Def Con from 0.000200717 to 0.000200717
Heightened Def Con from 0.000200717 to 0.000200717
Heightened Def Con from 0.000200717 to 0.000200717
Heightened Def Con from 0.000200717 to 0.000200717
Heightened Def Con from 0.000200717 to 0.000200717
Heightened Def Con from 0.000200717 to 0.000200717
Heightened Def Con from 0.000200717 to 0.000200717
Heightened Def Con from 0.000200717 to 0.000200717
Heightened Def Con from 0.000200717 to 0.000200717
Heightened Def Con from 0.000200717 +to 0.000200717
Heightened Def Con from 0.000200717 +to 0.000200717
Heightened Def Con from 0.000200717 to 0.000200717
Heightened Def Con from 0.000200717 ++to 0.000200717
Heightened Def Con from 0.000200717 to 0.000200717
Heightened Def Con from 0.000200717 to 0.000200717
Heightened Def Con from 0.000200717 to 0.000200717
Heightened Def Con from 0.000200717 to 0.000200717
Heightened Def Con from 0.000200717 to 0.000200717
Heightened Def Con from 0.000200717 +to 0.000200717
Heightened Def Con from 0.000200717 +to 0.000200717
Heightened Def Con from 0.000200717 to 0.000200717
Heightened Def Con from 0.000200717 to 0.000200717
Heightened Def Con from 0.000200717 to 0.000200717
Heightened Def Con from 0.000200717 to 0.000200717
Heightened Def Con from 0.000200717 to 0.000200717
Heightened Def Con from 0.000200717 to 0.000200717
Heightened Def Con from 0.000200717 to 0.000200717
Heightened Def Con from 0.000200717 to 0.000200717
Heightened Def Con from 0.000200717 to 0.000200717
Heightened Def Con from 0.000200717 to 0.000200717
Heightened Def Con from 0.000200717 +to 0.000200717
Heightened Def Con from 0.000200717 to 0.000200717
Heightened Def Con from 0.000200717 to 0.000200717
Heightened Def Con from 0.000200717 to 0.000200717
Heightened Def Con from 0.000200717 to 0.000200717
Heightened Def Con from 0.000200717 +to 0.000200717
Heightened Def Con from 0.000200717 to 0.000200717
Heightened Def Con from 0.000200717 to 0.000200717
Heightened Def Con from 0.000200717 to 0.000200717
Heightened Def Con from 0.000200717 +to 0.000200717
Heightened Def Con from 0.000200717 to 0.000200717
Heightened Def Con from 0.000200717 +to 0.000200717
Heightened Def Con from 0.000200717 to 0.000200717
Heightened Def Con from 0.000200717 to 0.000200717
Heightened Def Con from 0.000200717 to 0.000200717
Heightened Def Con from 0.000200717 to 0.000200717
Heightened Def Con from 0.000200717 to 0.000200717
Heightened Def Con from 0.000200717 ++to 0.000200717
Heightened Def Con from 0.000200717 to 0.000200717
Heightened Def Con from 0.000200717 to 0.000200717
Heightened Def Con from 0.000200717 to 0.000200717
Heightened Def Con from 0.000200717 to 0.000200717
Heightened Def Con from 0.000200717 to 0.000200717
Heightened Def Con from 0.000200717 +to 0.000200717
Heightened Def Con from 0.000200717 +to 0.000200717
Heightened Def Con from 0.000200717 to 0.000200717
Heightened Def Con from 0.000200717 to 0.000200717
Heightened Def Con from 0.000200717 to 0.000200717
Heightened Def Con from 0.000200717 +to 0.000200717
Heightened Def Con from 0.000200717 +to 0.000200717
Heightened Def Con from 0.000200717 to 0.000200717
Heightened Def Con from 0.000200717 to 0.000200717
Heightened Def Con from 0.000200717 to 0.000200717
Heightened Def Con from 0.000200717 to 0.000200717
Heightened Def Con from 0.000200717 to 0.000200717
Heightened Def Con from 0.000200717 to 0.000200717
Heightened Def Con from 0.000200717 to 0.000200717
Heightened Def Con from 0.000200717 to 0.000200717
Heightened Def Con from 0.000200717 to 0.000200717
Heightened Def Con from 0.000200717 to 0.000200717
Heightened Def Con from 0.000200717 to 0.000200717
Heightened Def Con from 0.000200717 to 0.000200717
Heightened Def Con from 0.000200717 to 0.000200717
Heightened Def Con from 0.000200717 to 0.000200717
Heightened Def Con from 0.000200717 to 0.000200717
Heightened Def Con from 0.000200717 to 0.000200717
Heightened Def Con from 0.000200717 to 0.000200717
Heightened Def Con from 0.000200717 to 0.000200717
Heightened Def Con from 0.000200717 to 0.000200717
Heightened Def Con from 0.000200717 to 0.000200717
Heightened Def Con from 0.000200717 to 0.000200717
Heightened Def Con from 0.000200717 to 0.000200717
Heightened Def Con from 0.000200717 +to 0.000200717
Heightened Def Con from 0.000200717 to 0.000200717
Heightened Def Con from 0.000200717 to 0.000200717
Heightened Def Con from 0.000200717 to 0.000200717
Heightened Def Con from 0.000200717 to 0.000200717
Heightened Def Con from 0.000200717 +to 0.000200717
Heightened Def Con from 0.000200717 +to 0.000200717
Heightened Def Con from 0.000200717 to 0.000200717
Heightened Def Con from 0.000200717 to 0.000200717
Heightened Def Con from 0.000200717 to 0.000200717
Heightened Def Con from 0.000200717 +to 0.000200717
Heightened Def Con from 0.000200717 to 0.000200717
Heightened Def Con from 0.000200717 to 0.000200717
Heightened Def Con from 0.000200717 to 0.000200717
Heightened Def Con from 0.000200717 to 0.000200717
Heightened Def Con from 0.000200717 to 0.000200717
Heightened Def Con from 0.000200717 to 0.000200717
Heightened Def Con from 0.000200717 +++++++++++++++++++to 0.000200718
Heightened Def Con from 0.000200718 +++++++++++to 0.000200719
Heightened Def Con from 0.000200719 +++++++++++to 0.00020072
Heightened Def Con from 0.00020072 +++++++++++to 0.000200721
Heightened Def Con from 0.000200721 +++++++++++to 0.000200721
Heightened Def Con from 0.000200721 +++++++++++to 0.000200722
Heightened Def Con from 0.000200722 +++++++++++to 0.000200722
Heightened Def Con from 0.000200722 +++++++++++to 0.000200722
Heightened Def Con from 0.000200722 +++++++++++to 0.000200725
Heightened Def Con from 0.000250671 +++++++++++++++++++to 0.000250672
Heightened Def Con from 0.000250672 ++++++++++++to 0.000250673
Heightened Def Con from 0.000250673 +++++++++to 0.000250673
Heightened Def Con from 0.000250673 +++++++to 0.000250673
Heightened Def Con from 0.000250673 +++++++to 0.000250673
Heightened Def Con from 0.000300717 to 0.000300717
Heightened Def Con from 0.000300717 to 0.000300717
Heightened Def Con from 0.000300717 to 0.000300717
Heightened Def Con from 0.000300717 to 0.000300717
Heightened Def Con from 0.000300717 to 0.000300717
Heightened Def Con from 0.000300717 to 0.000300717
Heightened Def Con from 0.000300717 to 0.000300717
Heightened Def Con from 0.000300717 to 0.000300717
Heightened Def Con from 0.000300717 to 0.000300717
Heightened Def Con from 0.000300717 to 0.000300717
Heightened Def Con from 0.000300717 to 0.000300717
Heightened Def Con from 0.000300717 to 0.000300717
Heightened Def Con from 0.000300717 +to 0.000300717
Heightened Def Con from 0.000300717 to 0.000300717
Heightened Def Con from 0.000300717 to 0.000300717
Heightened Def Con from 0.000300717 to 0.000300717
Heightened Def Con from 0.000300717 to 0.000300717
Heightened Def Con from 0.000300717 to 0.000300717
Heightened Def Con from 0.000300717 to 0.000300717
Heightened Def Con from 0.000300717 to 0.000300717
Heightened Def Con from 0.000300717 to 0.000300717
Heightened Def Con from 0.000300717 +to 0.000300717
Heightened Def Con from 0.000300717 to 0.000300717
Heightened Def Con from 0.000300717 to 0.000300717
Heightened Def Con from 0.000300717 to 0.000300717
Heightened Def Con from 0.000300717 to 0.000300717
Heightened Def Con from 0.000300717 +to 0.000300717
Heightened Def Con from 0.000300717 to 0.000300717
Heightened Def Con from 0.000300717 to 0.000300717
Heightened Def Con from 0.000300717 to 0.000300717
Heightened Def Con from 0.000300717 +to 0.000300717
Heightened Def Con from 0.000300717 to 0.000300717
Heightened Def Con from 0.000300717 ++to 0.000300717
Heightened Def Con from 0.000300717 to 0.000300717
Heightened Def Con from 0.000300717 to 0.000300717
Heightened Def Con from 0.000300717 to 0.000300717
Heightened Def Con from 0.000300717 +++to 0.000300717
Heightened Def Con from 0.000300717 to 0.000300717
Heightened Def Con from 0.000300717 to 0.000300717
Heightened Def Con from 0.000300717 to 0.000300717
Heightened Def Con from 0.000300717 +to 0.000300717
Heightened Def Con from 0.000300717 to 0.000300717
Heightened Def Con from 0.000300717 to 0.000300717
Heightened Def Con from 0.000300717 to 0.000300717
Heightened Def Con from 0.000300717 to 0.000300717
Heightened Def Con from 0.000300717 to 0.000300717
Heightened Def Con from 0.000300717 to 0.000300717
Heightened Def Con from 0.000300717 to 0.000300717
Heightened Def Con from 0.000300717 to 0.000300717
Heightened Def Con from 0.000300717 to 0.000300717
Heightened Def Con from 0.000300717 to 0.000300717
Heightened Def Con from 0.000300717 to 0.000300717
Heightened Def Con from 0.000300717 to 0.000300717
Heightened Def Con from 0.000300717 +to 0.000300717
Heightened Def Con from 0.000300717 to 0.000300717
Heightened Def Con from 0.000300717 to 0.000300717
Heightened Def Con from 0.000300717 to 0.000300717
Heightened Def Con from 0.000300717 to 0.000300717
Heightened Def Con from 0.000300717 to 0.000300717
Heightened Def Con from 0.000300717 to 0.000300717
Heightened Def Con from 0.000300717 to 0.000300717
Heightened Def Con from 0.000300717 to 0.000300717
Heightened Def Con from 0.000300717 +to 0.000300717
Heightened Def Con from 0.000300717 +++to 0.000300717
Heightened Def Con from 0.000300717 to 0.000300717
Heightened Def Con from 0.000300717 to 0.000300717
Heightened Def Con from 0.000300717 to 0.000300717
Heightened Def Con from 0.000300717 to 0.000300717
Heightened Def Con from 0.000300717 to 0.000300717
Heightened Def Con from 0.000300717 to 0.000300717
Heightened Def Con from 0.000300717 to 0.000300717
Heightened Def Con from 0.000300717 to 0.000300717
Heightened Def Con from 0.000300717 to 0.000300717
Heightened Def Con from 0.000300717 to 0.000300717
Heightened Def Con from 0.000300717 to 0.000300717
Heightened Def Con from 0.000300717 to 0.000300717
Heightened Def Con from 0.000300717 to 0.000300717
Heightened Def Con from 0.000300717 to 0.000300717
Heightened Def Con from 0.000300717 to 0.000300717
Heightened Def Con from 0.000300717 to 0.000300717
Heightened Def Con from 0.000300717 to 0.000300717
Heightened Def Con from 0.000300717 to 0.000300717
Heightened Def Con from 0.000300717 ++to 0.000300717
Heightened Def Con from 0.000300717 to 0.000300717
Heightened Def Con from 0.000300717 to 0.000300717
Heightened Def Con from 0.000300717 to 0.000300717
Heightened Def Con from 0.000300717 to 0.000300717
Heightened Def Con from 0.000300717 +to 0.000300717
Heightened Def Con from 0.000300717 to 0.000300717
Heightened Def Con from 0.000300717 to 0.000300717
Heightened Def Con from 0.000300717 to 0.000300717
Heightened Def Con from 0.000300717 ++to 0.000300717
Heightened Def Con from 0.000300717 to 0.000300717
Heightened Def Con from 0.000300717 to 0.000300717
Heightened Def Con from 0.000300717 to 0.000300717
Heightened Def Con from 0.000300717 to 0.000300717
Heightened Def Con from 0.000300717 to 0.000300717
Heightened Def Con from 0.000300717 +to 0.000300717
Heightened Def Con from 0.000300717 to 0.000300717
Heightened Def Con from 0.000300717 +to 0.000300717
Heightened Def Con from 0.000300717 to 0.000300717
Heightened Def Con from 0.000300717 to 0.000300717
Heightened Def Con from 0.000300717 to 0.000300717
Heightened Def Con from 0.000300717 to 0.000300717
Heightened Def Con from 0.000300717 +to 0.000300717
Heightened Def Con from 0.000300717 to 0.000300717
Heightened Def Con from 0.000300717 to 0.000300717
Heightened Def Con from 0.000300717 to 0.000300717
Heightened Def Con from 0.000300717 +to 0.000300717
Heightened Def Con from 0.000300717 to 0.000300717
Heightened Def Con from 0.000300717 to 0.000300717
Heightened Def Con from 0.000300717 to 0.000300717
Heightened Def Con from 0.000300717 to 0.000300717
Heightened Def Con from 0.000300717 to 0.000300717
Heightened Def Con from 0.000300717 to 0.000300717
Heightened Def Con from 0.000300717 +to 0.000300717
Heightened Def Con from 0.000300717 to 0.000300717
Heightened Def Con from 0.000300717 to 0.000300717
Heightened Def Con from 0.000300717 to 0.000300717
Heightened Def Con from 0.000300717 +to 0.000300717
Heightened Def Con from 0.000300717 to 0.000300717
Heightened Def Con from 0.000300717 to 0.000300717
Heightened Def Con from 0.000300717 to 0.000300717
Heightened Def Con from 0.000300717 to 0.000300717
Heightened Def Con from 0.000300717 to 0.000300717
Heightened Def Con from 0.000300717 to 0.000300717
Heightened Def Con from 0.000300717 to 0.000300717
Heightened Def Con from 0.000300717 to 0.000300717
Heightened Def Con from 0.000300717 +to 0.000300717
Heightened Def Con from 0.000300717 +to 0.000300717
Heightened Def Con from 0.000300717 to 0.000300717
Heightened Def Con from 0.000300717 ++to 0.000300717
Heightened Def Con from 0.000300717 to 0.000300717
Heightened Def Con from 0.000300717 to 0.000300717
Heightened Def Con from 0.000300717 to 0.000300717
Heightened Def Con from 0.000300717 to 0.000300717
Heightened Def Con from 0.000300717 +to 0.000300717
Heightened Def Con from 0.000300717 to 0.000300717
Heightened Def Con from 0.000300717 ++to 0.000300717
Heightened Def Con from 0.000300717 to 0.000300717
Heightened Def Con from 0.000300717 +to 0.000300717
Heightened Def Con from 0.000300717 to 0.000300717
Heightened Def Con from 0.000300717 to 0.000300717
Heightened Def Con from 0.000300717 +to 0.000300717
Heightened Def Con from 0.000300717 to 0.000300717
Heightened Def Con from 0.000300717 to 0.000300717
Heightened Def Con from 0.000300717 +to 0.000300717
Heightened Def Con from 0.000300717 to 0.000300717
Heightened Def Con from 0.000300717 +to 0.000300717
Heightened Def Con from 0.000300717 to 0.000300717
Heightened Def Con from 0.000300717 +to 0.000300717
Heightened Def Con from 0.000300717 to 0.000300717
Heightened Def Con from 0.000300717 to 0.000300717
Heightened Def Con from 0.000300717 +to 0.000300717
Heightened Def Con from 0.000300717 ++to 0.000300717
Heightened Def Con from 0.000300717 to 0.000300717
Heightened Def Con from 0.000300717 to 0.000300717
Heightened Def Con from 0.000300717 to 0.000300717
Heightened Def Con from 0.000300717 to 0.000300717
Heightened Def Con from 0.000300717 to 0.000300717
Heightened Def Con from 0.000300717 to 0.000300717
Heightened Def Con from 0.000300717 to 0.000300717
Heightened Def Con from 0.000300717 to 0.000300717
Heightened Def Con from 0.000300717 to 0.000300717
Heightened Def Con from 0.000300717 to 0.000300717
Heightened Def Con from 0.000300717 to 0.000300717
Heightened Def Con from 0.000300717 to 0.000300717
Heightened Def Con from 0.000300717 to 0.000300717
Heightened Def Con from 0.000300717 to 0.000300717
Heightened Def Con from 0.000300717 to 0.000300717
Heightened Def Con from 0.000300717 to 0.000300717
Heightened Def Con from 0.000300717 to 0.000300717
Heightened Def Con from 0.000300717 to 0.000300717
Heightened Def Con from 0.000300717 to 0.000300717
Heightened Def Con from 0.000300717 to 0.000300717
Heightened Def Con from 0.000300717 ++to 0.000300717
Heightened Def Con from 0.000300717 to 0.000300717
Heightened Def Con from 0.000300717 to 0.000300717
Heightened Def Con from 0.000300717 to 0.000300717
Heightened Def Con from 0.000300717 to 0.000300717
Heightened Def Con from 0.000300717 to 0.000300717
Heightened Def Con from 0.000300717 +to 0.000300717
Heightened Def Con from 0.000300717 to 0.000300717
Heightened Def Con from 0.000300717 to 0.000300717
Heightened Def Con from 0.000300717 to 0.000300717
Heightened Def Con from 0.000300717 to 0.000300717
Heightened Def Con from 0.000300717 to 0.000300717
Heightened Def Con from 0.000300717 to 0.000300717
Heightened Def Con from 0.000300717 to 0.000300717
Heightened Def Con from 0.000300717 +to 0.000300717
Heightened Def Con from 0.000300717 to 0.000300717
Heightened Def Con from 0.000300717 to 0.000300717
Heightened Def Con from 0.000300717 to 0.000300717
Heightened Def Con from 0.000300717 +to 0.000300717
Heightened Def Con from 0.000300717 to 0.000300717
Heightened Def Con from 0.000300717 to 0.000300717
Heightened Def Con from 0.000300717 to 0.000300717
Heightened Def Con from 0.000300717 ++to 0.000300717
Heightened Def Con from 0.000300717 to 0.000300717
Heightened Def Con from 0.000300717 to 0.000300717
Heightened Def Con from 0.000300717 to 0.000300717
Heightened Def Con from 0.000300717 to 0.000300717
Heightened Def Con from 0.000300717 ++to 0.000300717
Heightened Def Con from 0.000300717 to 0.000300717
Heightened Def Con from 0.000300717 +to 0.000300717
Heightened Def Con from 0.000300717 to 0.000300717
Heightened Def Con from 0.000300717 to 0.000300717
Heightened Def Con from 0.000300717 to 0.000300717
Heightened Def Con from 0.000300717 to 0.000300717
Heightened Def Con from 0.000300717 to 0.000300717
Heightened Def Con from 0.000300717 to 0.000300717
Heightened Def Con from 0.000300717 to 0.000300717
Heightened Def Con from 0.000300717 +to 0.000300717
Heightened Def Con from 0.000300717 +++to 0.000300717
Heightened Def Con from 0.000300717 to 0.000300717
Heightened Def Con from 0.000300717 to 0.000300717
Heightened Def Con from 0.000300717 to 0.000300717
Heightened Def Con from 0.000300717 to 0.000300717
Heightened Def Con from 0.000300717 to 0.000300717
Heightened Def Con from 0.000300717 ++to 0.000300717
Heightened Def Con from 0.000300717 to 0.000300717
Heightened Def Con from 0.000300717 to 0.000300717
Heightened Def Con from 0.000300717 to 0.000300717
Heightened Def Con from 0.000300717 +++to 0.000300717
Heightened Def Con from 0.000300717 to 0.000300717
Heightened Def Con from 0.000300717 ++to 0.000300717
Heightened Def Con from 0.000300717 to 0.000300717
Heightened Def Con from 0.000300717 to 0.000300717
Heightened Def Con from 0.000300717 to 0.000300717
Heightened Def Con from 0.000300717 to 0.000300717
Heightened Def Con from 0.000300717 to 0.000300717
Heightened Def Con from 0.000300717 ++to 0.000300717
Heightened Def Con from 0.000300717 to 0.000300717
Heightened Def Con from 0.000300717 to 0.000300717
Heightened Def Con from 0.000300717 +to 0.000300717
Heightened Def Con from 0.000300717 to 0.000300717
Heightened Def Con from 0.000300717 to 0.000300717
Heightened Def Con from 0.000300717 +to 0.000300717
Heightened Def Con from 0.000300717 +to 0.000300717
Heightened Def Con from 0.000300717 to 0.000300717
Heightened Def Con from 0.000300717 to 0.000300717
Heightened Def Con from 0.000300717 +to 0.000300717
Heightened Def Con from 0.000300717 to 0.000300717
Heightened Def Con from 0.000300717 to 0.000300717
Heightened Def Con from 0.000300717 to 0.000300717
Heightened Def Con from 0.000300717 to 0.000300717
Heightened Def Con from 0.000300717 to 0.000300717
Heightened Def Con from 0.000300717 +to 0.000300717
Heightened Def Con from 0.000300717 +to 0.000300717
Heightened Def Con from 0.000300717 to 0.000300717
Heightened Def Con from 0.000300717 to 0.000300717
Heightened Def Con from 0.000300717 +to 0.000300717
Heightened Def Con from 0.000300717 to 0.000300717
Heightened Def Con from 0.000300717 to 0.000300717
Heightened Def Con from 0.000300717 to 0.000300717
Heightened Def Con from 0.000300717 +to 0.000300717
Heightened Def Con from 0.000300717 to 0.000300717
Heightened Def Con from 0.000300717 to 0.000300717
Heightened Def Con from 0.000300717 to 0.000300717
Heightened Def Con from 0.000300717 to 0.000300717
Heightened Def Con from 0.000300717 to 0.000300717
Heightened Def Con from 0.000300717 to 0.000300717
Heightened Def Con from 0.000300717 +to 0.000300717
Heightened Def Con from 0.000300717 to 0.000300717
Heightened Def Con from 0.000300717 to 0.000300717
Heightened Def Con from 0.000300717 to 0.000300717
Heightened Def Con from 0.000300717 to 0.000300717
Heightened Def Con from 0.000300717 to 0.000300717
Heightened Def Con from 0.00035067 to 0.00035067
Heightened Def Con from 0.00035067 to 0.00035067
Heightened Def Con from 0.00035067 to 0.00035067
Heightened Def Con from 0.00035067 to 0.00035067
Heightened Def Con from 0.00035067 to 0.00035067
Heightened Def Con from 0.00035067 ++to 0.00035067
Heightened Def Con from 0.00035067 to 0.00035067
Heightened Def Con from 0.00035067 to 0.00035067
Heightened Def Con from 0.00035067 to 0.00035067
Heightened Def Con from 0.00035067 +to 0.00035067
Heightened Def Con from 0.00035067 to 0.00035067
Heightened Def Con from 0.00035067 to 0.00035067
Heightened Def Con from 0.00035067 to 0.00035067
Heightened Def Con from 0.00035067 ++to 0.00035067
Heightened Def Con from 0.00035067 to 0.00035067
Heightened Def Con from 0.00035067 to 0.00035067
Heightened Def Con from 0.00035067 to 0.00035067
Heightened Def Con from 0.00035067 to 0.00035067
Heightened Def Con from 0.00035067 ++to 0.00035067
Heightened Def Con from 0.00035067 to 0.00035067
Heightened Def Con from 0.00035067 to 0.00035067
Heightened Def Con from 0.00035067 to 0.00035067
Heightened Def Con from 0.00035067 to 0.00035067
Heightened Def Con from 0.00035067 to 0.00035067
Heightened Def Con from 0.00035067 to 0.00035067
Heightened Def Con from 0.00035067 to 0.00035067
Heightened Def Con from 0.00035067 to 0.00035067
Heightened Def Con from 0.00035067 to 0.00035067
Heightened Def Con from 0.00035067 to 0.00035067
Heightened Def Con from 0.00035067 to 0.00035067
Heightened Def Con from 0.00035067 to 0.00035067
Heightened Def Con from 0.00035067 to 0.00035067
Heightened Def Con from 0.00035067 to 0.00035067
Heightened Def Con from 0.00035067 to 0.00035067
Heightened Def Con from 0.00035067 to 0.00035067
Heightened Def Con from 0.00035067 to 0.00035067
Heightened Def Con from 0.00035067 to 0.00035067
Heightened Def Con from 0.00035067 to 0.00035067
Heightened Def Con from 0.00035067 to 0.00035067
Heightened Def Con from 0.00035067 to 0.00035067
Heightened Def Con from 0.00035067 to 0.00035067
Heightened Def Con from 0.00035067 to 0.00035067
Heightened Def Con from 0.00035067 ++to 0.00035067
Heightened Def Con from 0.00035067 to 0.00035067
Heightened Def Con from 0.00035067 to 0.00035067
Heightened Def Con from 0.00035067 to 0.00035067
Heightened Def Con from 0.00035067 to 0.00035067
Heightened Def Con from 0.00035067 to 0.00035067
Heightened Def Con from 0.00035067 to 0.00035067
Heightened Def Con from 0.00035067 to 0.00035067
Heightened Def Con from 0.00035067 +to 0.00035067
Heightened Def Con from 0.00035067 to 0.00035067
Heightened Def Con from 0.00035067 to 0.00035067
Heightened Def Con from 0.00035067 to 0.00035067
Heightened Def Con from 0.00035067 to 0.00035067
Heightened Def Con from 0.00035067 +++++++++++++++++++to 0.000350671
Heightened Def Con from 0.000350671 ++++++++++++to 0.000350671
Heightened Def Con from 0.000350671 +++++++++++to 0.000350672
Heightened Def Con from 0.000350672 ++++++++to 0.000350672
Heightened Def Con from 0.000350672 +++++++to 0.000350672
Heightened Def Con from 0.000350672 +++++++to 0.000350672
Heightened Def Con from 0.000350672 +++++++to 0.000350672
Heightened Def Con from 0.000350672 +++++++to 0.000350672
Heightened Def Con from 0.000350672 +++++++to 0.000350672
Heightened Def Con from 0.000350672 +++++++to 0.000350672
Heightened Def Con from 0.000350672 +++++++to 0.000350672
Heightened Def Con from 0.000350672 +++++++to 0.000350672
Heightened Def Con from 0.000350672 +++++++to 0.000350672
Heightened Def Con from 0.000400717 to 0.000400717
Heightened Def Con from 0.000400717 to 0.000400717
Heightened Def Con from 0.000400717 +to 0.000400717
Heightened Def Con from 0.000400717 +to 0.000400717
Heightened Def Con from 0.000400717 +to 0.000400717
Heightened Def Con from 0.000400717 to 0.000400717
Heightened Def Con from 0.000400717 +to 0.000400717
Heightened Def Con from 0.000400717 +to 0.000400717
Heightened Def Con from 0.000400717 to 0.000400717
Heightened Def Con from 0.000400717 ++to 0.000400717
Heightened Def Con from 0.000400717 to 0.000400717
Heightened Def Con from 0.000400717 +to 0.000400717
Heightened Def Con from 0.000400717 to 0.000400717
Heightened Def Con from 0.000400717 to 0.000400717
Heightened Def Con from 0.000400717 to 0.000400717
Heightened Def Con from 0.000400717 to 0.000400717
Heightened Def Con from 0.000400717 to 0.000400717
Heightened Def Con from 0.000400717 to 0.000400717
Heightened Def Con from 0.000400717 to 0.000400717
Heightened Def Con from 0.000400717 to 0.000400717
Heightened Def Con from 0.000400717 +to 0.000400717
Heightened Def Con from 0.000400717 +to 0.000400717
Heightened Def Con from 0.000400717 +to 0.000400717
Heightened Def Con from 0.000400717 +to 0.000400717
Heightened Def Con from 0.000400717 +to 0.000400717
Heightened Def Con from 0.000400717 to 0.000400717
Heightened Def Con from 0.000400717 +++++++++++++++++++to 0.000400718
Heightened Def Con from 0.000400718 ++++++++++to 0.000400719
Heightened Def Con from 0.000400719 ++++++++++to 0.000400719
Heightened Def Con from 0.000400719 ++++++++++to 0.000400719
Heightened Def Con from 0.000400719 ++++++++++to 0.000400719
Heightened Def Con from 0.000400719 ++++++++++to 0.000400719
Heightened Def Con from 0.000400719 ++++++++++to 0.000400719
Heightened Def Con from 0.00045067 to 0.00045067
Heightened Def Con from 0.00045067 to 0.00045067
Heightened Def Con from 0.00045067 to 0.00045067
Heightened Def Con from 0.00045067 to 0.00045067
Heightened Def Con from 0.00045067 to 0.00045067
Heightened Def Con from 0.00045067 to 0.00045067
Heightened Def Con from 0.00045067 to 0.00045067
Heightened Def Con from 0.00045067 to 0.00045067
Heightened Def Con from 0.00045067 to 0.00045067
Heightened Def Con from 0.00045067 to 0.00045067
Heightened Def Con from 0.00045067 to 0.00045067
Heightened Def Con from 0.00045067 to 0.00045067
Heightened Def Con from 0.00045067 to 0.00045067
Heightened Def Con from 0.00045067 to 0.00045067
Heightened Def Con from 0.00045067 to 0.00045067
Heightened Def Con from 0.00045067 to 0.00045067
Heightened Def Con from 0.00045067 +to 0.00045067
Heightened Def Con from 0.00045067 to 0.00045067
Heightened Def Con from 0.00045067 to 0.00045067
Heightened Def Con from 0.00045067 to 0.00045067
Heightened Def Con from 0.00045067 to 0.00045067
Heightened Def Con from 0.00045067 to 0.00045067
Heightened Def Con from 0.00045067 to 0.00045067
Heightened Def Con from 0.00045067 to 0.00045067
Heightened Def Con from 0.00045067 +to 0.00045067
Heightened Def Con from 0.00045067 to 0.00045067
Heightened Def Con from 0.00045067 to 0.00045067
Heightened Def Con from 0.00045067 +to 0.00045067
Heightened Def Con from 0.00045067 to 0.00045067
Heightened Def Con from 0.00045067 to 0.00045067
Heightened Def Con from 0.00045067 to 0.00045067
Heightened Def Con from 0.00045067 to 0.00045067
Heightened Def Con from 0.00045067 to 0.00045067
Heightened Def Con from 0.00045067 to 0.00045067
Heightened Def Con from 0.00045067 to 0.00045067
Heightened Def Con from 0.00045067 to 0.00045067
Heightened Def Con from 0.00045067 to 0.00045067
Heightened Def Con from 0.00045067 to 0.00045067
Heightened Def Con from 0.00045067 to 0.00045067
Heightened Def Con from 0.00045067 to 0.00045067
Heightened Def Con from 0.00045067 to 0.00045067
Heightened Def Con from 0.00045067 to 0.00045067
Heightened Def Con from 0.00045067 to 0.00045067
Heightened Def Con from 0.00045067 ++to 0.00045067
Heightened Def Con from 0.00045067 to 0.00045067
Heightened Def Con from 0.00045067 to 0.00045067
Heightened Def Con from 0.00045067 to 0.00045067
Heightened Def Con from 0.00045067 to 0.00045067
Heightened Def Con from 0.00045067 to 0.00045067
Heightened Def Con from 0.00045067 to 0.00045067
Heightened Def Con from 0.00045067 to 0.00045067
Heightened Def Con from 0.00045067 to 0.00045067
Heightened Def Con from 0.00045067 to 0.00045067
Heightened Def Con from 0.00045067 to 0.00045067
Heightened Def Con from 0.00045067 to 0.00045067
Heightened Def Con from 0.00045067 to 0.00045067
Heightened Def Con from 0.00045067 to 0.00045067
Heightened Def Con from 0.00045067 to 0.00045067
Heightened Def Con from 0.00045067 to 0.00045067
Heightened Def Con from 0.00045067 to 0.00045067
Heightened Def Con from 0.00045067 to 0.00045067
Heightened Def Con from 0.00045067 to 0.00045067
Heightened Def Con from 0.00045067 ++to 0.00045067
Heightened Def Con from 0.00045067 to 0.00045067
Heightened Def Con from 0.00045067 to 0.00045067
Heightened Def Con from 0.00045067 to 0.00045067
Heightened Def Con from 0.00045067 to 0.00045067
Heightened Def Con from 0.00045067 to 0.00045067
Heightened Def Con from 0.00045067 to 0.00045067
Heightened Def Con from 0.00045067 to 0.00045067
Heightened Def Con from 0.00045067 to 0.00045067
Heightened Def Con from 0.00045067 +to 0.00045067
Heightened Def Con from 0.00045067 to 0.00045067
Heightened Def Con from 0.00045067 to 0.00045067
Heightened Def Con from 0.00045067 to 0.00045067
Heightened Def Con from 0.00045067 to 0.00045067
Heightened Def Con from 0.00045067 to 0.00045067
Heightened Def Con from 0.00045067 to 0.00045067
Heightened Def Con from 0.00045067 to 0.00045067
Heightened Def Con from 0.00045067 to 0.00045067
Heightened Def Con from 0.00045067 to 0.00045067
Heightened Def Con from 0.00045067 to 0.00045067
Heightened Def Con from 0.00045067 to 0.00045067
Heightened Def Con from 0.00045067 to 0.00045067
Heightened Def Con from 0.00045067 to 0.00045067
Heightened Def Con from 0.00045067 to 0.00045067
Heightened Def Con from 0.00045067 to 0.00045067
Heightened Def Con from 0.00045067 to 0.00045067
Heightened Def Con from 0.00045067 to 0.00045067
Heightened Def Con from 0.00045067 to 0.00045067
Heightened Def Con from 0.00045067 to 0.00045067
Heightened Def Con from 0.00045067 to 0.00045067
Heightened Def Con from 0.00045067 to 0.00045067
Heightened Def Con from 0.00045067 to 0.00045067
Heightened Def Con from 0.00045067 to 0.00045067
Heightened Def Con from 0.00045067 to 0.00045067
Heightened Def Con from 0.00045067 to 0.00045067
Heightened Def Con from 0.00045067 to 0.00045067
Heightened Def Con from 0.00045067 to 0.00045067
Heightened Def Con from 0.000500716 to 0.000500716
Heightened Def Con from 0.000500716 to 0.000500716
Heightened Def Con from 0.000500716 +to 0.000500716
Heightened Def Con from 0.000500716 to 0.000500716
Heightened Def Con from 0.000500716 ++to 0.000500716
Heightened Def Con from 0.000500716 to 0.000500716
Heightened Def Con from 0.000500716 +to 0.000500716
Heightened Def Con from 0.000500716 to 0.000500716
Heightened Def Con from 0.000500716 to 0.000500716
Heightened Def Con from 0.000500716 to 0.000500716
Heightened Def Con from 0.000500716 to 0.000500716
Heightened Def Con from 0.000500716 to 0.000500716
Heightened Def Con from 0.000500716 to 0.000500716
Heightened Def Con from 0.000500716 to 0.000500716
Heightened Def Con from 0.000500716 to 0.000500716
Heightened Def Con from 0.000500716 +to 0.000500716
Heightened Def Con from 0.000500716 +to 0.000500716
Heightened Def Con from 0.000500716 +to 0.000500716
Heightened Def Con from 0.000500716 to 0.000500716
Heightened Def Con from 0.000500716 to 0.000500716
Heightened Def Con from 0.000500716 to 0.000500716
Heightened Def Con from 0.000500716 to 0.000500716
Heightened Def Con from 0.000500716 ++to 0.000500716
Heightened Def Con from 0.000500716 to 0.000500716
Heightened Def Con from 0.000500716 to 0.000500716
Heightened Def Con from 0.000500716 to 0.000500716
Heightened Def Con from 0.000500716 +to 0.000500716
Heightened Def Con from 0.000500716 to 0.000500716
Heightened Def Con from 0.000500716 to 0.000500716
Heightened Def Con from 0.000500716 to 0.000500716
Heightened Def Con from 0.000500716 +to 0.000500716
Heightened Def Con from 0.000500716 to 0.000500716
Heightened Def Con from 0.000500716 to 0.000500716
Heightened Def Con from 0.000500716 to 0.000500716
Heightened Def Con from 0.000500716 to 0.000500716
Heightened Def Con from 0.000500716 to 0.000500716
Heightened Def Con from 0.000500716 to 0.000500716
Heightened Def Con from 0.000500716 to 0.000500716
Heightened Def Con from 0.000500716 to 0.000500716
Heightened Def Con from 0.000500716 to 0.000500716
Heightened Def Con from 0.000500716 to 0.000500716
Heightened Def Con from 0.000500716 ++to 0.000500716
Heightened Def Con from 0.000500716 to 0.000500716
Heightened Def Con from 0.000500716 +to 0.000500716
Heightened Def Con from 0.000500716 to 0.000500716
Heightened Def Con from 0.000500716 +to 0.000500716
Heightened Def Con from 0.000500716 to 0.000500716
Heightened Def Con from 0.000500716 ++to 0.000500716
Heightened Def Con from 0.000500716 to 0.000500716
Heightened Def Con from 0.000500716 to 0.000500716
Heightened Def Con from 0.000500716 to 0.000500716
Heightened Def Con from 0.000500716 to 0.000500716
Heightened Def Con from 0.000500716 to 0.000500716
Heightened Def Con from 0.000500716 to 0.000500716
Heightened Def Con from 0.000500716 to 0.000500716
Heightened Def Con from 0.000500716 ++to 0.000500716
Heightened Def Con from 0.000500716 to 0.000500716
Heightened Def Con from 0.000500716 +to 0.000500716
Heightened Def Con from 0.000500716 to 0.000500716
Heightened Def Con from 0.000500716 to 0.000500716
Heightened Def Con from 0.000500716 to 0.000500716
Heightened Def Con from 0.000500716 to 0.000500716
Heightened Def Con from 0.000500716 to 0.000500716
Heightened Def Con from 0.000500716 to 0.000500716
Heightened Def Con from 0.000500716 to 0.000500716
Heightened Def Con from 0.000500716 to 0.000500716
Heightened Def Con from 0.000500716 to 0.000500716
Heightened Def Con from 0.000500716 to 0.000500716
Heightened Def Con from 0.000500716 to 0.000500716
Heightened Def Con from 0.000500716 to 0.000500716
Heightened Def Con from 0.000500716 to 0.000500716
Heightened Def Con from 0.000500716 to 0.000500716
Heightened Def Con from 0.000500716 to 0.000500716
Heightened Def Con from 0.000500716 +to 0.000500716
Heightened Def Con from 0.000500716 +to 0.000500716
Heightened Def Con from 0.000500716 to 0.000500716
Heightened Def Con from 0.000500716 to 0.000500716
Heightened Def Con from 0.000500716 to 0.000500716
Heightened Def Con from 0.000500716 to 0.000500716
Heightened Def Con from 0.000500716 +to 0.000500716
Heightened Def Con from 0.000500716 to 0.000500716
Heightened Def Con from 0.000500716 to 0.000500716
Heightened Def Con from 0.000500716 to 0.000500716
Heightened Def Con from 0.000500716 to 0.000500716
Heightened Def Con from 0.000500716 to 0.000500716
Heightened Def Con from 0.000500716 +++++++++++++++++++to 0.000500717
Heightened Def Con from 0.000500717 +++++++++++to 0.000500718
Heightened Def Con from 0.000500718 +++++++++++to 0.00050072
Heightened Def Con from 0.00050072 +++++++++++to 0.000500721
Heightened Def Con from 0.000500721 +++++++++++to 0.000500721
Heightened Def Con from 0.000500721 +++++++++++to 0.000500721
Heightened Def Con from 0.000500721 +++++++++++to 0.000500721
Heightened Def Con from 0.000500721 +++++++++++to 0.000500722
Heightened Def Con from 0.000500722 +++++++++++to 0.000500725
Heightened Def Con from 0.000550671 to 0.000550671
Heightened Def Con from 0.000550671 to 0.000550671
Heightened Def Con from 0.000550671 to 0.000550671
Heightened Def Con from 0.000550671 to 0.000550671
Heightened Def Con from 0.000550671 to 0.000550671
Heightened Def Con from 0.000550671 to 0.000550671
Heightened Def Con from 0.000550671 +to 0.000550671
Heightened Def Con from 0.000550671 to 0.000550671
Heightened Def Con from 0.000550671 to 0.000550671
Heightened Def Con from 0.000550671 to 0.000550671
Heightened Def Con from 0.000550671 to 0.000550671
Heightened Def Con from 0.000550671 to 0.000550671
Heightened Def Con from 0.000550671 to 0.000550671
Heightened Def Con from 0.000550671 +to 0.000550671
Heightened Def Con from 0.000550671 to 0.000550671
Heightened Def Con from 0.000550671 to 0.000550671
Heightened Def Con from 0.000550671 +to 0.000550671
Heightened Def Con from 0.000550671 to 0.000550671
Heightened Def Con from 0.000550671 to 0.000550671
Heightened Def Con from 0.000550671 to 0.000550671
Heightened Def Con from 0.000550671 to 0.000550671
Heightened Def Con from 0.000550671 to 0.000550671
Heightened Def Con from 0.000550671 to 0.000550671
Heightened Def Con from 0.000550671 +to 0.000550671
Heightened Def Con from 0.000550671 to 0.000550671
Heightened Def Con from 0.000550671 to 0.000550671
Heightened Def Con from 0.000550671 to 0.000550671
Heightened Def Con from 0.000550671 to 0.000550671
Heightened Def Con from 0.000550671 to 0.000550671
Heightened Def Con from 0.000550671 to 0.000550671
Heightened Def Con from 0.000550671 +to 0.000550671
Heightened Def Con from 0.000550671 to 0.000550671
Heightened Def Con from 0.000550671 ++to 0.000550671
Heightened Def Con from 0.000550671 to 0.000550671
Heightened Def Con from 0.000550671 +to 0.000550671
Heightened Def Con from 0.000550671 to 0.000550671
Heightened Def Con from 0.000550671 +to 0.000550671
Heightened Def Con from 0.000550671 to 0.000550671
Heightened Def Con from 0.000550671 to 0.000550671
Heightened Def Con from 0.000550671 to 0.000550671
Heightened Def Con from 0.000550671 to 0.000550671
Heightened Def Con from 0.000550671 to 0.000550671
Heightened Def Con from 0.000550671 to 0.000550671
Heightened Def Con from 0.000550671 to 0.000550671
Heightened Def Con from 0.000550671 to 0.000550671
Heightened Def Con from 0.000550671 +to 0.000550671
Heightened Def Con from 0.000550671 to 0.000550671
Heightened Def Con from 0.000550671 to 0.000550671
Heightened Def Con from 0.000550671 to 0.000550671
Heightened Def Con from 0.000550671 to 0.000550671
Heightened Def Con from 0.000550671 to 0.000550671
Heightened Def Con from 0.000550671 to 0.000550671
Heightened Def Con from 0.000550671 to 0.000550671
Heightened Def Con from 0.000550671 to 0.000550671
Heightened Def Con from 0.000550671 to 0.000550671
Heightened Def Con from 0.000550671 to 0.000550671
Heightened Def Con from 0.000550671 to 0.000550671
Heightened Def Con from 0.000550671 to 0.000550671
Heightened Def Con from 0.000550671 to 0.000550671
Heightened Def Con from 0.000550671 to 0.000550671
Heightened Def Con from 0.000550671 to 0.000550671
Heightened Def Con from 0.000550671 to 0.000550671
Heightened Def Con from 0.000550671 to 0.000550671
Heightened Def Con from 0.000550671 to 0.000550671
Heightened Def Con from 0.000550671 to 0.000550671
Heightened Def Con from 0.000550671 to 0.000550671
Heightened Def Con from 0.000550671 to 0.000550671
Heightened Def Con from 0.000550671 to 0.000550671
Heightened Def Con from 0.000550671 to 0.000550671
Heightened Def Con from 0.000550671 to 0.000550671
Heightened Def Con from 0.000550671 to 0.000550671
Heightened Def Con from 0.000550671 +to 0.000550671
Heightened Def Con from 0.000550671 +to 0.000550671
Heightened Def Con from 0.000550671 +to 0.000550671
Heightened Def Con from 0.000550671 to 0.000550671
Heightened Def Con from 0.000550671 to 0.000550671
Heightened Def Con from 0.000550671 to 0.000550671
Heightened Def Con from 0.000550671 to 0.000550671
Heightened Def Con from 0.000550671 to 0.000550671
Heightened Def Con from 0.000550671 to 0.000550671
Heightened Def Con from 0.000550671 to 0.000550671
Heightened Def Con from 0.000550671 to 0.000550671
Heightened Def Con from 0.000550671 +to 0.000550671
Heightened Def Con from 0.000550671 to 0.000550671
Heightened Def Con from 0.000550671 +to 0.000550671
Heightened Def Con from 0.000550671 to 0.000550671
Heightened Def Con from 0.000550671 to 0.000550671
Heightened Def Con from 0.000550671 to 0.000550671
Heightened Def Con from 0.000550671 +to 0.000550671
Heightened Def Con from 0.000550671 to 0.000550671
Heightened Def Con from 0.000550671 to 0.000550671
Heightened Def Con from 0.000550671 +++to 0.000550671
Heightened Def Con from 0.000550671 to 0.000550671
Heightened Def Con from 0.000550671 to 0.000550671
Heightened Def Con from 0.000550671 to 0.000550671
Heightened Def Con from 0.000550671 +++to 0.000550671
Heightened Def Con from 0.000550671 to 0.000550671
Heightened Def Con from 0.000550671 to 0.000550671
Heightened Def Con from 0.000550671 to 0.000550671
Heightened Def Con from 0.000550671 +to 0.000550671
Heightened Def Con from 0.000550671 to 0.000550671
Heightened Def Con from 0.000550671 to 0.000550671
Heightened Def Con from 0.000550671 to 0.000550671
Heightened Def Con from 0.000550671 to 0.000550671
Heightened Def Con from 0.000550671 to 0.000550671
Heightened Def Con from 0.000550671 to 0.000550671
Heightened Def Con from 0.000550671 to 0.000550671
Heightened Def Con from 0.000550671 to 0.000550671
Heightened Def Con from 0.000550671 to 0.000550671
Heightened Def Con from 0.000550671 to 0.000550671
Heightened Def Con from 0.000550671 to 0.000550671
Heightened Def Con from 0.000550671 to 0.000550671
Heightened Def Con from 0.000550671 +to 0.000550671
Heightened Def Con from 0.000550671 to 0.000550671
Heightened Def Con from 0.000550671 to 0.000550671
Heightened Def Con from 0.000550671 to 0.000550671
Heightened Def Con from 0.000550671 to 0.000550671
Heightened Def Con from 0.000550671 to 0.000550671
Heightened Def Con from 0.000550671 to 0.000550671
Heightened Def Con from 0.000550671 to 0.000550671
Heightened Def Con from 0.000550671 to 0.000550671
Heightened Def Con from 0.000550671 to 0.000550671
Heightened Def Con from 0.000550671 to 0.000550671
Heightened Def Con from 0.000550671 to 0.000550671
Heightened Def Con from 0.000550671 to 0.000550671
Heightened Def Con from 0.000550671 to 0.000550671
Heightened Def Con from 0.000550671 to 0.000550671
Heightened Def Con from 0.000550671 to 0.000550671
Heightened Def Con from 0.000550671 to 0.000550671
Heightened Def Con from 0.000550671 to 0.000550671
Heightened Def Con from 0.000550671 to 0.000550671
Heightened Def Con from 0.000550671 to 0.000550671
Heightened Def Con from 0.000550671 +to 0.000550671
Heightened Def Con from 0.000550671 to 0.000550671
Heightened Def Con from 0.000550671 to 0.000550671
Heightened Def Con from 0.000550671 to 0.000550671
Heightened Def Con from 0.000550671 to 0.000550671
Heightened Def Con from 0.000550671 to 0.000550671
Heightened Def Con from 0.000550671 to 0.000550671
Heightened Def Con from 0.000550671 to 0.000550671
Heightened Def Con from 0.000550671 to 0.000550671
Heightened Def Con from 0.000550671 to 0.000550671
Heightened Def Con from 0.000550671 +to 0.000550671
Heightened Def Con from 0.000550671 to 0.000550671
Heightened Def Con from 0.000550671 to 0.000550671
Heightened Def Con from 0.000550671 to 0.000550671
Heightened Def Con from 0.000550671 to 0.000550671
Heightened Def Con from 0.000550671 to 0.000550671
Heightened Def Con from 0.000550671 to 0.000550671
Heightened Def Con from 0.000550671 +to 0.000550671
Heightened Def Con from 0.000550671 +to 0.000550671
Heightened Def Con from 0.000550671 to 0.000550671
Heightened Def Con from 0.000550671 to 0.000550671
Heightened Def Con from 0.000550671 to 0.000550671
Heightened Def Con from 0.000550671 to 0.000550671
Heightened Def Con from 0.000550671 to 0.000550671
Heightened Def Con from 0.000550671 to 0.000550671
Heightened Def Con from 0.000550671 +to 0.000550671
Heightened Def Con from 0.000550671 to 0.000550671
Heightened Def Con from 0.000550671 to 0.000550671
Heightened Def Con from 0.000550671 +++++++++++++++++++to 0.000550672
Heightened Def Con from 0.000550672 ++++++++++to 0.000550673
Heightened Def Con from 0.000550673 ++++++++to 0.000550674
Heightened Def Con from 0.000550674 ++++++++to 0.000550674
Heightened Def Con from 0.000550674 ++++++++to 0.000550674
Heightened Def Con from 0.000600716 to 0.000600716
Heightened Def Con from 0.000600716 to 0.000600716
Heightened Def Con from 0.000600716 to 0.000600716
Heightened Def Con from 0.000600716 to 0.000600716
Heightened Def Con from 0.000600716 to 0.000600716
Heightened Def Con from 0.000600716 to 0.000600716
Heightened Def Con from 0.000600716 to 0.000600716
Heightened Def Con from 0.000600716 to 0.000600716
Heightened Def Con from 0.000600716 +to 0.000600716
Heightened Def Con from 0.000600716 +to 0.000600716
Heightened Def Con from 0.000600716 to 0.000600716
Heightened Def Con from 0.000600716 to 0.000600716
Heightened Def Con from 0.000600716 to 0.000600716
Heightened Def Con from 0.000600716 +++++++++++++++++++to 0.000600717
Heightened Def Con from 0.000600717 +++++++++++to 0.000600718
Heightened Def Con from 0.000600718 +++++++++++to 0.00060072
Heightened Def Con from 0.00060072 +++++++++++to 0.000600721
Heightened Def Con from 0.000600721 +++++++++++to 0.000600721
Heightened Def Con from 0.000600721 +++++++++++to 0.000600721
Heightened Def Con from 0.000600721 +++++++++++to 0.000600721
Heightened Def Con from 0.000600721 +++++++++++to 0.000600722
Heightened Def Con from 0.000600722 +++++++++++to 0.000600725
Heightened Def Con from 0.000650671 to 0.000650671
Heightened Def Con from 0.000650671 to 0.000650671
Heightened Def Con from 0.000650671 to 0.000650671
Heightened Def Con from 0.000650671 to 0.000650671
Heightened Def Con from 0.000650671 to 0.000650671
Heightened Def Con from 0.000650671 to 0.000650671
Heightened Def Con from 0.000650671 to 0.000650671
Heightened Def Con from 0.000650671 to 0.000650671
Heightened Def Con from 0.000650671 to 0.000650671
Heightened Def Con from 0.000650671 to 0.000650671
Heightened Def Con from 0.000650671 to 0.000650671
Heightened Def Con from 0.000650671 to 0.000650671
Heightened Def Con from 0.000650671 to 0.000650671
Heightened Def Con from 0.000650671 to 0.000650671
Heightened Def Con from 0.000650671 ++to 0.000650671
Heightened Def Con from 0.000650671 to 0.000650671
Heightened Def Con from 0.000650671 to 0.000650671
Heightened Def Con from 0.000650671 to 0.000650671
Heightened Def Con from 0.000650671 to 0.000650671
Heightened Def Con from 0.000650671 to 0.000650671
Heightened Def Con from 0.000650671 to 0.000650671
Heightened Def Con from 0.000650671 to 0.000650671
Heightened Def Con from 0.000650671 to 0.000650671
Heightened Def Con from 0.000650671 to 0.000650671
Heightened Def Con from 0.000650671 to 0.000650671
Heightened Def Con from 0.000650671 to 0.000650671
Heightened Def Con from 0.000650671 to 0.000650671
Heightened Def Con from 0.000650671 to 0.000650671
Heightened Def Con from 0.000650671 to 0.000650671
Heightened Def Con from 0.000650671 to 0.000650671
Heightened Def Con from 0.000650671 to 0.000650671
Heightened Def Con from 0.000650671 to 0.000650671
Heightened Def Con from 0.000650671 to 0.000650671
Heightened Def Con from 0.000650671 to 0.000650671
Heightened Def Con from 0.000650671 to 0.000650671
Heightened Def Con from 0.000650671 to 0.000650671
Heightened Def Con from 0.000650671 ++to 0.000650671
Heightened Def Con from 0.000650671 to 0.000650671
Heightened Def Con from 0.000650671 to 0.000650671
Heightened Def Con from 0.000650671 to 0.000650671
Heightened Def Con from 0.000650671 to 0.000650671
Heightened Def Con from 0.000650671 to 0.000650671
Heightened Def Con from 0.000650671 to 0.000650671
Heightened Def Con from 0.000650671 to 0.000650671
Heightened Def Con from 0.000650671 to 0.000650671
Heightened Def Con from 0.000650671 to 0.000650671
Heightened Def Con from 0.000650671 to 0.000650671
Heightened Def Con from 0.000650671 to 0.000650671
Heightened Def Con from 0.000650671 to 0.000650671
Heightened Def Con from 0.000650671 to 0.000650671
Heightened Def Con from 0.000650671 to 0.000650671
Heightened Def Con from 0.000650671 to 0.000650671
Heightened Def Con from 0.000650671 to 0.000650671
Heightened Def Con from 0.000650671 to 0.000650671
Heightened Def Con from 0.000650671 ++to 0.000650671
Heightened Def Con from 0.000650671 to 0.000650671
Heightened Def Con from 0.000650671 to 0.000650671
Heightened Def Con from 0.000650671 to 0.000650671
Heightened Def Con from 0.000650671 to 0.000650671
Heightened Def Con from 0.000650671 to 0.000650671
Heightened Def Con from 0.000650671 to 0.000650671
Heightened Def Con from 0.000650671 to 0.000650671
Heightened Def Con from 0.000650671 to 0.000650671
Heightened Def Con from 0.000650671 to 0.000650671
Heightened Def Con from 0.000650671 to 0.000650671
Heightened Def Con from 0.000650671 to 0.000650671
Heightened Def Con from 0.000650671 to 0.000650671
Heightened Def Con from 0.000650671 to 0.000650671
[...]
Heightened Def Con from 0.00145067 to 0.00145067
Heightened Def Con from 0.00145067 to 0.00145067
Heightened Def Con from 0.00145067 to 0.00145067
Heightened Def Con from 0.00145067 to 0.00145067
Heightened Def Con from 0.00145067 to 0.00145067
Heightened Def Con from 0.00145067 to 0.00145067
Heightened Def Con from 0.00145067 to 0.00145067
Heightened Def Con from 0.00145067 to 0.00145067
Heightened Def Con from 0.00145067 to 0.00145067
Heightened Def Con from 0.00145067 to 0.00145067
Heightened Def Con from 0.00145067 +++to 0.00145067
Heightened Def Con from 0.00145067 to 0.00145067
Heightened Def Con from 0.00145067 to 0.00145067
Heightened Def Con from 0.00145067 to 0.00145067
Heightened Def Con from 0.00145067 to 0.00145067
Heightened Def Con from 0.00145067 to 0.00145067
Heightened Def Con from 0.00145067 to 0.00145067
Heightened Def Con from 0.00145067 +to 0.00145067
Heightened Def Con from 0.00145067 to 0.00145067
Heightened Def Con from 0.00145067 to 0.00145067
Heightened Def Con from 0.00145067 to 0.00145067
Heightened Def Con from 0.00145067 ++to 0.00145067
Heightened Def Con from 0.00145067 to 0.00145067
Heightened Def Con from 0.00145067 to 0.00145067
Heightened Def Con from 0.00145067 to 0.00145067
Heightened Def Con from 0.00145067 to 0.00145067
Heightened Def Con from 0.00145067 to 0.00145067
Heightened Def Con from 0.00145067 to 0.00145067
Heightened Def Con from 0.00145067 to 0.00145067
Heightened Def Con from 0.00145067 to 0.00145067
Heightened Def Con from 0.00145067 to 0.00145067
Heightened Def Con from 0.00145067 to 0.00145067
Heightened Def Con from 0.00145067 +to 0.00145067
Heightened Def Con from 0.00145067 to 0.00145067
Heightened Def Con from 0.00145067 to 0.00145067
Heightened Def Con from 0.00145067 to 0.00145067
Heightened Def Con from 0.00145067 to 0.00145067
Heightened Def Con from 0.00145067 to 0.00145067
Heightened Def Con from 0.00145067 to 0.00145067
Heightened Def Con from 0.00145067 to 0.00145067
Heightened Def Con from 0.00145067 to 0.00145067
Heightened Def Con from 0.00145067 to 0.00145067
Heightened Def Con from 0.00145067 to 0.00145067
Heightened Def Con from 0.00145067 to 0.00145067
Heightened Def Con from 0.00145067 +++++++++++++++++++to 0.00145067
Heightened Def Con from 0.00145067 +++++++++++to 0.00145067
Heightened Def Con from 0.00145067 ++++++++to 0.00145067
Heightened Def Con from 0.00145067 +++++++to 0.00145067
Heightened Def Con from 0.00145067 ++++++to 0.00145067
Heightened Def Con from 0.00145067 ++++++to 0.00145067
Heightened Def Con from 0.00145067 +++++++to 0.00145067
Heightened Def Con from 0.00150071 to 0.00150071
Heightened Def Con from 0.00150071 to 0.00150071
Heightened Def Con from 0.00150071 to 0.00150071
Heightened Def Con from 0.00150071 +to 0.00150071
Heightened Def Con from 0.00150071 to 0.00150071
Heightened Def Con from 0.00150071 to 0.00150071
Heightened Def Con from 0.00150071 to 0.00150071
Heightened Def Con from 0.00150071 to 0.00150071
Heightened Def Con from 0.00150071 to 0.00150071
Heightened Def Con from 0.00150071 to 0.00150071
Heightened Def Con from 0.00150071 to 0.00150071
Heightened Def Con from 0.00150071 to 0.00150071
Heightened Def Con from 0.00150071 to 0.00150071
Heightened Def Con from 0.00150071 to 0.00150071
Heightened Def Con from 0.00150071 to 0.00150071
Heightened Def Con from 0.00150071 to 0.00150071
Heightened Def Con from 0.00150071 to 0.00150071
Heightened Def Con from 0.00150071 to 0.00150071
Heightened Def Con from 0.00150071 to 0.00150071
Heightened Def Con from 0.00150071 to 0.00150071
Heightened Def Con from 0.00150071 to 0.00150071
Heightened Def Con from 0.00150071 to 0.00150071
Heightened Def Con from 0.00150071 to 0.00150071
Heightened Def Con from 0.00150071 to 0.00150071
Heightened Def Con from 0.00150071 to 0.00150071
Heightened Def Con from 0.00150071 to 0.00150071
Heightened Def Con from 0.00150071 to 0.00150071
Heightened Def Con from 0.00150071 to 0.00150071
Heightened Def Con from 0.00150071 to 0.00150071
Heightened Def Con from 0.00150071 to 0.00150071
Heightened Def Con from 0.00150071 to 0.00150071
Heightened Def Con from 0.00150071 +to 0.00150071
Heightened Def Con from 0.00150071 to 0.00150071
Heightened Def Con from 0.00150071 to 0.00150071
Heightened Def Con from 0.00150071 to 0.00150071
Heightened Def Con from 0.00150071 +to 0.00150071
Heightened Def Con from 0.00150071 +to 0.00150071
Heightened Def Con from 0.00150071 +to 0.00150071
Heightened Def Con from 0.00150071 +to 0.00150071
Heightened Def Con from 0.00150071 +to 0.00150071
Heightened Def Con from 0.00150071 to 0.00150071
Heightened Def Con from 0.00150071 to 0.00150071
Heightened Def Con from 0.00150071 to 0.00150071
Heightened Def Con from 0.00150071 to 0.00150071
Heightened Def Con from 0.00150071 to 0.00150071
Heightened Def Con from 0.00150071 to 0.00150071
Heightened Def Con from 0.00150071 ++to 0.00150071
Heightened Def Con from 0.00150071 to 0.00150071
Heightened Def Con from 0.00150071 to 0.00150071
Heightened Def Con from 0.00150071 to 0.00150071
Heightened Def Con from 0.00150071 to 0.00150071
Heightened Def Con from 0.00150071 to 0.00150071
Heightened Def Con from 0.00150071 to 0.00150071
Heightened Def Con from 0.00150071 to 0.00150071
Heightened Def Con from 0.00150071 to 0.00150071
Heightened Def Con from 0.00150071 to 0.00150071
Heightened Def Con from 0.00150071 to 0.00150071
Heightened Def Con from 0.00150071 +to 0.00150071
Heightened Def Con from 0.00150071 to 0.00150071
Heightened Def Con from 0.00150071 ++to 0.00150071
Heightened Def Con from 0.00150071 to 0.00150071
Heightened Def Con from 0.00150071 to 0.00150071
Heightened Def Con from 0.00150071 to 0.00150071
Heightened Def Con from 0.00150071 to 0.00150071
Heightened Def Con from 0.00150071 ++to 0.00150071
Heightened Def Con from 0.00150071 to 0.00150071
Heightened Def Con from 0.00150071 to 0.00150071
Heightened Def Con from 0.00150071 to 0.00150071
Heightened Def Con from 0.00150071 to 0.00150071
Heightened Def Con from 0.00150071 to 0.00150071
Heightened Def Con from 0.00150071 to 0.00150071
Heightened Def Con from 0.00150071 to 0.00150071
Heightened Def Con from 0.00150071 to 0.00150071
Heightened Def Con from 0.00150071 to 0.00150071
Heightened Def Con from 0.00150071 to 0.00150071
Heightened Def Con from 0.00150071 to 0.00150071
Heightened Def Con from 0.00150071 to 0.00150071
Heightened Def Con from 0.00150071 +to 0.00150071
Heightened Def Con from 0.00150071 to 0.00150071
Heightened Def Con from 0.00150071 ++to 0.00150071
Heightened Def Con from 0.00150071 to 0.00150071
Heightened Def Con from 0.00150071 to 0.00150071
Heightened Def Con from 0.00150071 to 0.00150071
Heightened Def Con from 0.00150071 +to 0.00150071
Heightened Def Con from 0.00150071 to 0.00150071
Heightened Def Con from 0.00150071 to 0.00150071
Heightened Def Con from 0.00150071 to 0.00150071
Heightened Def Con from 0.00150071 to 0.00150071
Heightened Def Con from 0.00150071 to 0.00150071
Heightened Def Con from 0.00150071 to 0.00150071
Heightened Def Con from 0.00150071 to 0.00150071
Heightened Def Con from 0.00150071 to 0.00150071
Heightened Def Con from 0.00150071 to 0.00150071
Heightened Def Con from 0.00150071 to 0.00150071
Heightened Def Con from 0.00150071 to 0.00150071
Heightened Def Con from 0.00150071 to 0.00150071
Heightened Def Con from 0.00150071 to 0.00150071
Heightened Def Con from 0.00150071 to 0.00150071
Heightened Def Con from 0.00150071 to 0.00150071
Heightened Def Con from 0.00150071 to 0.00150071
Heightened Def Con from 0.00150071 to 0.00150071
Heightened Def Con from 0.00150071 +++to 0.00150071
Heightened Def Con from 0.00150071 to 0.00150071
Heightened Def Con from 0.00150071 +++to 0.00150071
Heightened Def Con from 0.00150071 to 0.00150071
Heightened Def Con from 0.00150071 to 0.00150071
Heightened Def Con from 0.00150071 +to 0.00150071
Heightened Def Con from 0.00150071 to 0.00150071
Heightened Def Con from 0.00150071 to 0.00150071
Heightened Def Con from 0.00150071 to 0.00150071
Heightened Def Con from 0.00150071 to 0.00150071
Heightened Def Con from 0.00150071 +to 0.00150071
Heightened Def Con from 0.00150071 to 0.00150071
Heightened Def Con from 0.00150071 to 0.00150071
Heightened Def Con from 0.00150071 ++++to 0.00150071
Heightened Def Con from 0.00150071 to 0.00150071
Heightened Def Con from 0.00150071 +++++++++++++++++++to 0.00150072
Heightened Def Con from 0.00150072 ++++++++++to 0.00150072
Heightened Def Con from 0.00150072 ++++++++++to 0.00150072
Heightened Def Con from 0.00150072 ++++++++++to 0.00150072
Heightened Def Con from 0.00150072 ++++++++++to 0.00150072
Heightened Def Con from 0.00150072 ++++++++++to 0.00150072
Heightened Def Con from 0.00150072 ++++++++++to 0.00150072
Heightened Def Con from 0.00150072 ++++++++++to 0.00150072
Heightened Def Con from 0.00150072 ++++++++++to 0.00150072
Heightened Def Con from 0.00150072 ++++++++++to 0.00150072
Heightened Def Con from 0.00155067 to 0.00155067
Heightened Def Con from 0.00155067 to 0.00155067
Heightened Def Con from 0.00155067 to 0.00155067
Heightened Def Con from 0.00155067 to 0.00155067
Heightened Def Con from 0.00155067 to 0.00155067
Heightened Def Con from 0.00155067 to 0.00155067
Heightened Def Con from 0.00155067 to 0.00155067
Heightened Def Con from 0.00155067 to 0.00155067
Heightened Def Con from 0.00155067 to 0.00155067
Heightened Def Con from 0.00155067 to 0.00155067
Heightened Def Con from 0.00155067 to 0.00155067
Heightened Def Con from 0.00155067 to 0.00155067
Heightened Def Con from 0.00155067 to 0.00155067
Heightened Def Con from 0.00155067 to 0.00155067
Heightened Def Con from 0.00155067 to 0.00155067
Heightened Def Con from 0.00155067 to 0.00155067
Heightened Def Con from 0.00155067 to 0.00155067
Heightened Def Con from 0.00155067 to 0.00155067
Heightened Def Con from 0.00155067 to 0.00155067
Heightened Def Con from 0.00155067 to 0.00155067
Heightened Def Con from 0.00155067 to 0.00155067
Heightened Def Con from 0.00155067 to 0.00155067
Heightened Def Con from 0.00155067 to 0.00155067
Heightened Def Con from 0.00155067 to 0.00155067
Heightened Def Con from 0.00155067 to 0.00155067
Heightened Def Con from 0.00155067 to 0.00155067
Heightened Def Con from 0.00155067 to 0.00155067
Heightened Def Con from 0.00155067 to 0.00155067
Heightened Def Con from 0.00155067 to 0.00155067
Heightened Def Con from 0.00155067 to 0.00155067
Heightened Def Con from 0.00155067 to 0.00155067
Heightened Def Con from 0.00155067 to 0.00155067
Heightened Def Con from 0.00155067 to 0.00155067
Heightened Def Con from 0.00155067 to 0.00155067
Heightened Def Con from 0.00155067 ++to 0.00155067
Heightened Def Con from 0.00155067 to 0.00155067
Heightened Def Con from 0.00155067 to 0.00155067
Heightened Def Con from 0.00155067 to 0.00155067
Heightened Def Con from 0.00155067 ++to 0.00155067
Heightened Def Con from 0.00155067 to 0.00155067
Heightened Def Con from 0.00155067 to 0.00155067
Heightened Def Con from 0.00155067 ++to 0.00155067
Heightened Def Con from 0.00155067 to 0.00155067
Heightened Def Con from 0.00155067 to 0.00155067
Heightened Def Con from 0.00155067 to 0.00155067
Heightened Def Con from 0.00155067 to 0.00155067
Heightened Def Con from 0.00155067 to 0.00155067
Heightened Def Con from 0.00155067 to 0.00155067
Heightened Def Con from 0.00155067 to 0.00155067
Heightened Def Con from 0.00155067 to 0.00155067
Heightened Def Con from 0.00155067 +++to 0.00155067
Heightened Def Con from 0.00155067 to 0.00155067
Heightened Def Con from 0.00155067 to 0.00155067
Heightened Def Con from 0.00155067 to 0.00155067
Heightened Def Con from 0.00155067 to 0.00155067
Heightened Def Con from 0.00155067 to 0.00155067
Heightened Def Con from 0.00155067 to 0.00155067
Heightened Def Con from 0.00155067 to 0.00155067
Heightened Def Con from 0.00155067 to 0.00155067
Heightened Def Con from 0.00155067 to 0.00155067
Heightened Def Con from 0.00155067 to 0.00155067
Heightened Def Con from 0.00155067 to 0.00155067
Heightened Def Con from 0.00155067 to 0.00155067
Heightened Def Con from 0.00155067 to 0.00155067
Heightened Def Con from 0.00155067 to 0.00155067
Heightened Def Con from 0.00155067 to 0.00155067
Heightened Def Con from 0.00155067 to 0.00155067
Heightened Def Con from 0.00155067 to 0.00155067
Heightened Def Con from 0.00155067 to 0.00155067
Heightened Def Con from 0.00155067 to 0.00155067
Heightened Def Con from 0.00155067 to 0.00155067
Heightened Def Con from 0.00155067 to 0.00155067
Heightened Def Con from 0.00155067 to 0.00155067
Heightened Def Con from 0.00155067 to 0.00155067
Heightened Def Con from 0.00155067 to 0.00155067
Heightened Def Con from 0.00155067 to 0.00155067
Heightened Def Con from 0.00155067 to 0.00155067
Heightened Def Con from 0.00155067 to 0.00155067
Heightened Def Con from 0.00155067 to 0.00155067
Heightened Def Con from 0.00155067 to 0.00155067
Heightened Def Con from 0.00155067 to 0.00155067
Heightened Def Con from 0.00155067 to 0.00155067
Heightened Def Con from 0.00155067 +to 0.00155067
Heightened Def Con from 0.00155067 to 0.00155067
Heightened Def Con from 0.00155067 +to 0.00155067
Heightened Def Con from 0.00155067 +to 0.00155067
Heightened Def Con from 0.00155067 to 0.00155067
Heightened Def Con from 0.00155067 to 0.00155067
Heightened Def Con from 0.00155067 to 0.00155067
Heightened Def Con from 0.00155067 +to 0.00155067
Heightened Def Con from 0.00155067 to 0.00155067
Heightened Def Con from 0.00155067 to 0.00155067
Heightened Def Con from 0.00155067 to 0.00155067
Heightened Def Con from 0.00155067 ++to 0.00155067
Heightened Def Con from 0.00155067 to 0.00155067
Heightened Def Con from 0.00155067 to 0.00155067
Heightened Def Con from 0.00155067 to 0.00155067
Heightened Def Con from 0.00155067 to 0.00155067
Heightened Def Con from 0.00155067 to 0.00155067
Heightened Def Con from 0.00155067 +to 0.00155067
Heightened Def Con from 0.00155067 +to 0.00155067
Heightened Def Con from 0.00155067 to 0.00155067
Heightened Def Con from 0.00155067 to 0.00155067
Heightened Def Con from 0.00155067 +to 0.00155067
Heightened Def Con from 0.00155067 to 0.00155067
Heightened Def Con from 0.00155067 to 0.00155067
Heightened Def Con from 0.00155067 to 0.00155067
Heightened Def Con from 0.00155067 +to 0.00155067
Heightened Def Con from 0.00155067 ++to 0.00155067
Heightened Def Con from 0.00155067 to 0.00155067
Heightened Def Con from 0.00155067 to 0.00155067
Heightened Def Con from 0.00155067 to 0.00155067
Heightened Def Con from 0.00155067 to 0.00155067
Heightened Def Con from 0.00155067 +to 0.00155067
Heightened Def Con from 0.00155067 to 0.00155067
Heightened Def Con from 0.00155067 to 0.00155067
Heightened Def Con from 0.00155067 +to 0.00155067
Heightened Def Con from 0.00155067 to 0.00155067
Heightened Def Con from 0.00155067 to 0.00155067
Heightened Def Con from 0.00155067 to 0.00155067
Heightened Def Con from 0.00155067 to 0.00155067
Heightened Def Con from 0.00155067 to 0.00155067
Heightened Def Con from 0.00155067 +to 0.00155067
Heightened Def Con from 0.00155067 to 0.00155067
Heightened Def Con from 0.00155067 +to 0.00155067
Heightened Def Con from 0.00155067 +to 0.00155067
Heightened Def Con from 0.00155067 ++to 0.00155067
Heightened Def Con from 0.00155067 to 0.00155067
Heightened Def Con from 0.00155067 to 0.00155067
Heightened Def Con from 0.00155067 to 0.00155067
Heightened Def Con from 0.00155067 to 0.00155067
Heightened Def Con from 0.00155067 ++to 0.00155067
Heightened Def Con from 0.00155067 to 0.00155067
Heightened Def Con from 0.00155067 to 0.00155067
Heightened Def Con from 0.00155067 +to 0.00155067
Heightened Def Con from 0.00155067 to 0.00155067
Heightened Def Con from 0.00155067 +to 0.00155067
Heightened Def Con from 0.00155067 to 0.00155067
Heightened Def Con from 0.00155067 to 0.00155067
Heightened Def Con from 0.00155067 ++to 0.00155067
Heightened Def Con from 0.00155067 to 0.00155067
Heightened Def Con from 0.00155067 to 0.00155067
Heightened Def Con from 0.00155067 to 0.00155067
Heightened Def Con from 0.00155067 to 0.00155067
Heightened Def Con from 0.00155067 +to 0.00155067
Heightened Def Con from 0.00155067 ++to 0.00155067
Heightened Def Con from 0.00155067 +to 0.00155067
Heightened Def Con from 0.00155067 to 0.00155067
Heightened Def Con from 0.00155067 to 0.00155067
Heightened Def Con from 0.00155067 to 0.00155067
Heightened Def Con from 0.00155067 to 0.00155067
Heightened Def Con from 0.00155067 to 0.00155067
Heightened Def Con from 0.00155067 ++to 0.00155067
Heightened Def Con from 0.00155067 ++to 0.00155067
Heightened Def Con from 0.00155067 +to 0.00155067
Heightened Def Con from 0.00155067 +to 0.00155067
Heightened Def Con from 0.00155067 to 0.00155067
Heightened Def Con from 0.00155067 to 0.00155067
Heightened Def Con from 0.00155067 to 0.00155067
Heightened Def Con from 0.00155067 to 0.00155067
Heightened Def Con from 0.00155067 to 0.00155067
Heightened Def Con from 0.00155067 to 0.00155067
Heightened Def Con from 0.00155067 to 0.00155067
Heightened Def Con from 0.00155067 to 0.00155067
Heightened Def Con from 0.00155067 to 0.00155067
Heightened Def Con from 0.00155067 ++++to 0.00155067
Heightened Def Con from 0.00155067 +to 0.00155067
Heightened Def Con from 0.00155067 to 0.00155067
Heightened Def Con from 0.00155067 to 0.00155067
Heightened Def Con from 0.00155067 +++to 0.00155067
Heightened Def Con from 0.00155067 +to 0.00155067
Heightened Def Con from 0.00155067 to 0.00155067
Heightened Def Con from 0.00155067 to 0.00155067
Heightened Def Con from 0.00155067 to 0.00155067
Heightened Def Con from 0.00155067 to 0.00155067
Heightened Def Con from 0.00155067 +to 0.00155067
Heightened Def Con from 0.00155067 to 0.00155067
Heightened Def Con from 0.00155067 to 0.00155067
Heightened Def Con from 0.00155067 to 0.00155067
Heightened Def Con from 0.00155067 to 0.00155067
Heightened Def Con from 0.00155067 to 0.00155067
Heightened Def Con from 0.00155067 to 0.00155067
Heightened Def Con from 0.00155067 to 0.00155067
Heightened Def Con from 0.00155067 to 0.00155067
Heightened Def Con from 0.00155067 to 0.00155067
Heightened Def Con from 0.00155067 to 0.00155067
Heightened Def Con from 0.00155067 to 0.00155067
Heightened Def Con from 0.00155067 +to 0.00155067
Heightened Def Con from 0.00155067 to 0.00155067
Heightened Def Con from 0.00155067 +to 0.00155067
Heightened Def Con from 0.00155067 to 0.00155067
Heightened Def Con from 0.00155067 +to 0.00155067
Heightened Def Con from 0.00155067 to 0.00155067
Heightened Def Con from 0.00155067 +to 0.00155067
Heightened Def Con from 0.00155067 ++to 0.00155067
Heightened Def Con from 0.00155067 to 0.00155067
Heightened Def Con from 0.00155067 +to 0.00155067
Heightened Def Con from 0.00155067 +to 0.00155067
Heightened Def Con from 0.00155067 +to 0.00155067
Heightened Def Con from 0.00155067 to 0.00155067
Heightened Def Con from 0.00155067 to 0.00155067
Heightened Def Con from 0.00155067 to 0.00155067
Heightened Def Con from 0.00155067 ++to 0.00155067
Heightened Def Con from 0.00155067 to 0.00155067
Heightened Def Con from 0.00155067 to 0.00155067
Heightened Def Con from 0.00155067 to 0.00155067
Heightened Def Con from 0.00155067 to 0.00155067
Heightened Def Con from 0.00155067 ++to 0.00155067
Heightened Def Con from 0.00155067 ++to 0.00155067
Heightened Def Con from 0.00155067 to 0.00155067
Heightened Def Con from 0.00155067 +to 0.00155067
Heightened Def Con from 0.00155067 +to 0.00155067
Heightened Def Con from 0.00155067 +to 0.00155067
Heightened Def Con from 0.00155067 to 0.00155067
Heightened Def Con from 0.00155067 to 0.00155067
Heightened Def Con from 0.00155067 +++to 0.00155067
Heightened Def Con from 0.00155067 to 0.00155067
Heightened Def Con from 0.00155067 ++to 0.00155067
Heightened Def Con from 0.00155067 ++to 0.00155067
Heightened Def Con from 0.00155067 to 0.00155067
Heightened Def Con from 0.00155067 ++++++++++++++++++++++++++++++++++++++++++++++++++Fatal Error: Analysis:  Time step too small; time = 0.00155067, timestep = 1.25085e-018: trouble with u1:dx-instance d:u1:9

