Circuit: * C:\Users\Nanodyn - Spare\OneDrive - Nanodyn\Desktop\GIT repository\Waveform-generator\LTspice Circuits\Transistor LED switch.asc

Limiting rise time of source v1 to 0.1
Limiting fall time of source v1 to 0.1
Direct Newton iteration for .op point succeeded.

Date: Wed Apr 07 12:54:49 2021
Total elapsed time: 6.292 seconds.

tnom = 27
temp = 27
method = modified trap
totiter = 1465
traniter = 1440
tranpoints = 424
accept = 336
rejected = 88
matrix size = 7
fillins = 0
solver = Normal
Matrix Compiler1: 196 bytes object code size  0.4/0.3/[0.2]
Matrix Compiler2: off  [0.3]/1.2/0.4

