Circuit: * C:\Users\Nanodyn - Spare\OneDrive - Nanodyn\Desktop\GIT repository\Waveform-generator\LTspice Circuits\Transistor LED switch.asc

Limiting rise time of source v1 to 0.1
Limiting fall time of source v1 to 0.1
Direct Newton iteration for .op point succeeded.

Date: Thu Feb 11 11:41:57 2021
Total elapsed time: 0.127 seconds.

tnom = 27
temp = 27
method = modified trap
totiter = 1465
traniter = 1440
tranpoints = 424
accept = 336
rejected = 88
matrix size = 7
fillins = 0
solver = Normal
Matrix Compiler1: 196 bytes object code size  0.1/0.1/[0.1]
Matrix Compiler2: 453 bytes object code size  0.1/0.1/[0.1]

