Circuit: * C:\Users\Nanodyn - Spare\OneDrive - Nanodyn\Desktop\GIT repository\Waveform-generator\LTspice Circuits\Transistor LED switch.asc

Limiting rise time of source v1 to 0.1
Limiting fall time of source v1 to 0.1
Direct Newton iteration for .op point succeeded.

Date: Wed Feb 10 16:48:16 2021
Total elapsed time: 0.124 seconds.

tnom = 27
temp = 27
method = modified trap
totiter = 1417
traniter = 1393
tranpoints = 406
accept = 317
rejected = 89
matrix size = 7
fillins = 0
solver = Normal
Matrix Compiler1: 196 bytes object code size  0.1/0.1/[0.0]
Matrix Compiler2: 453 bytes object code size  0.1/0.1/[0.1]

