Circuit: * C:\Users\Nanodyn - Spare\OneDrive - Nanodyn\Desktop\GIT repository\Waveform-generator\LTspice Circuits\Draft1.asc

Direct Newton iteration failed to find .op point.  (Use ".option noopiter" to skip.)
Starting Gmin stepping
Gmin = 10
Gmin = 1.07374
Gmin = 0.115292
Gmin = 0.0123794
Gmin = 0.00132923
Gmin = 0.000142725
Gmin = 1.5325e-005
Gmin = 1.6455e-006
vernier = 0.5
vernier = 0.25
Gmin = 4.31359e-007
vernier = 0.125
vernier = 0.0625
vernier = 0.03125
vernier = 0.015625
vernier = 0.0078125
vernier = 0.00390625
vernier = 0.00195313
vernier = 0.000976563
Gmin = 4.05985e-007
vernier = 0.00130208
Gmin = 4.04831e-007
vernier = 0.00173611
vernier = 0.000868055
vernier = 0.00115741
Gmin = 4.04026e-007
vernier = 0.00154321
Gmin = 4.02626e-007
vernier = 0.00205761
vernier = 0.00102881
vernier = 0.00137174
Gmin = 4.01695e-007
vernier = 0.00182899
vernier = 0.000914493
Gmin = 4.00824e-007
vernier = 0.00121932
vernier = 0.00162576
vernier = 0.000812882
Gmin = 3.99929e-007
vernier = 0.00108384
vernier = 0.00144512
Gmin = 3.98892e-007
vernier = 0.00192683
vernier = 0.000963415
Gmin = 3.97885e-007
vernier = 0.00128455
vernier = 0.00171274
vernier = 0.000856369
Gmin = 3.96927e-007
vernier = 0.00114182
Gmin = 3.95937e-007
vernier = 0.00152243
vernier = 0.00202991
vernier = 0.00101495
Gmin = 3.94822e-007
vernier = 0.00135327
Gmin = 3.93621e-007
vernier = 0.00180436
vernier = 0.000902182
vernier = 0.00120291
Gmin = 3.92823e-007
vernier = 0.00160388
vernier = 0.000801939
Gmin = 3.92076e-007
vernier = 0.00106925
vernier = 0.00142567
Gmin = 3.9089e-007
vernier = 0.00190089
vernier = 0.000950445
vernier = 0.00126726
Gmin = 3.90024e-007
vernier = 0.00168968
vernier = 0.00084484
Gmin = 3.8916e-007
vernier = 0.00112645
vernier = 0.00150194
Gmin = 3.88048e-007
vernier = 0.00200258
vernier = 0.00100129
Gmin = 3.87078e-007
vernier = 0.00133505
vernier = 0.00178007
vernier = 0.000890036
Gmin = 3.86121e-007
vernier = 0.00118671
Gmin = 3.85092e-007
vernier = 0.00158229
vernier = 0.000791143
vernier = 0.00105486
Gmin = 3.84407e-007
vernier = 0.00140648
vernier = 0.0018753
Gmin = 3.83114e-007
vernier = 0.00093765
vernier = 0.0012502
Gmin = 3.82366e-007
vernier = 0.00166693
vernier = 0.000833466
vernier = 0.00111129
Gmin = 3.81624e-007
vernier = 0.00148172
Gmin = 3.80389e-007
vernier = 0.00197562
vernier = 0.000987811
vernier = 0.00131708
Gmin = 3.79529e-007
vernier = 0.00175611
vernier = 0.000878054
Gmin = 3.78697e-007
vernier = 0.00117074
vernier = 0.00156098
vernier = 0.000780492
Gmin = 3.77876e-007
vernier = 0.00104066
Gmin = 3.76992e-007
vernier = 0.00138754
vernier = 0.00185005
vernier = 0.000925027
Gmin = 3.76034e-007
vernier = 0.00123337
vernier = 0.00164449
Gmin = 3.74925e-007
vernier = 0.000822246
vernier = 0.00109633
Gmin = 3.74283e-007
vernier = 0.00146177
vernier = 0.00194903
vernier = 0.000974513
Gmin = 3.73259e-007
vernier = 0.00129935
Gmin = 3.722e-007
vernier = 0.00173247
vernier = 0.000866233
vernier = 0.00115498
Gmin = 3.71462e-007
vernier = 0.00153997
vernier = 0.000769984
Gmin = 3.70748e-007
vernier = 0.00102665
vernier = 0.00136886
Gmin = 3.69726e-007
vernier = 0.00182515
vernier = 0.000912573
Gmin = 3.68926e-007
vernier = 0.00121676
vernier = 0.00162235
vernier = 0.000811176
Gmin = 3.68104e-007
vernier = 0.00108157
vernier = 0.00144209
Gmin = 3.67151e-007
vernier = 0.00192279
vernier = 0.000961393
Gmin = 3.66226e-007
vernier = 0.00128186
vernier = 0.00170914
vernier = 0.000854571
Gmin = 3.65347e-007
vernier = 0.00113943
Gmin = 3.64438e-007
vernier = 0.00151924
vernier = 0.000759618
vernier = 0.00101282
Gmin = 3.63804e-007
vernier = 0.00135043
Gmin = 3.627e-007
vernier = 0.00180058
vernier = 0.000900288
vernier = 0.00120038
Gmin = 3.61967e-007
vernier = 0.00160051
vernier = 0.000800255
Gmin = 3.61279e-007
vernier = 0.00106701
vernier = 0.00142268
Gmin = 3.60189e-007
vernier = 0.0018969
vernier = 0.00094845
vernier = 0.0012646
Gmin = 3.59393e-007
vernier = 0.00168613
vernier = 0.000843066
Gmin = 3.58598e-007
vernier = 0.00112409
vernier = 0.00149878
vernier = 0.000749392
Gmin = 3.57844e-007
vernier = 0.000999189
Gmin = 3.57062e-007
vernier = 0.00133225
vernier = 0.00177634
vernier = 0.000888168
Gmin = 3.56182e-007
vernier = 0.00118422
Gmin = 3.55234e-007
vernier = 0.00157896
vernier = 0.000789482
vernier = 0.00105264
Gmin = 3.54604e-007
vernier = 0.00140352
vernier = 0.00187136
Gmin = 3.53413e-007
vernier = 0.000935682
vernier = 0.00124758
Gmin = 3.52725e-007
vernier = 0.00166343
vernier = 0.000831717
vernier = 0.00110896
Gmin = 3.52041e-007
vernier = 0.00147861
vernier = 0.000739303
Gmin = 3.51359e-007
vernier = 0.000985737
vernier = 0.00131432
Gmin = 3.5048e-007
vernier = 0.00175242
vernier = 0.000876211
Gmin = 3.49713e-007
vernier = 0.00116828
vernier = 0.00155771
vernier = 0.000778853
Gmin = 3.48956e-007
vernier = 0.00103847
Gmin = 3.48142e-007
vernier = 0.00138463
vernier = 0.00184617
vernier = 0.000923085
Gmin = 3.4726e-007
vernier = 0.00123078
vernier = 0.00164104
Gmin = 3.46237e-007
vernier = 0.00082052
vernier = 0.00109403
Gmin = 3.45646e-007
vernier = 0.0014587
vernier = 0.00072935
vernier = 0.000972467
Gmin = 3.45058e-007
vernier = 0.00129662
Gmin = 3.44081e-007
vernier = 0.00172883
vernier = 0.000864415
vernier = 0.00115255
Gmin = 3.434e-007
vernier = 0.00153674
vernier = 0.000768368
Gmin = 3.42741e-007
vernier = 0.00102449
vernier = 0.00136599
Gmin = 3.41799e-007
vernier = 0.00182132
vernier = 0.000910658
Gmin = 3.41061e-007
vernier = 0.00121421
vernier = 0.00161895
vernier = 0.000809473
Gmin = 3.40303e-007
vernier = 0.0010793
vernier = 0.00143906
Gmin = 3.39424e-007
vernier = 0.000719531
vernier = 0.000959375
Gmin = 3.38915e-007
vernier = 0.00127917
vernier = 0.00170555
vernier = 0.000852777
Gmin = 3.38104e-007
vernier = 0.00113704
Gmin = 3.37264e-007
vernier = 0.00151605
vernier = 0.000758024
vernier = 0.0010107
Gmin = 3.36679e-007
vernier = 0.0013476
Gmin = 3.35659e-007
vernier = 0.0017968
vernier = 0.000898398
vernier = 0.00119786
Gmin = 3.34982e-007
vernier = 0.00159715
vernier = 0.000798576
Gmin = 3.34347e-007
vernier = 0.00106477
vernier = 0.00141969
vernier = 0.000709845
Gmin = 3.33695e-007
vernier = 0.000946459
vernier = 0.00126195
Gmin = 3.32939e-007
vernier = 0.00168259
vernier = 0.000841297
Gmin = 3.32205e-007
vernier = 0.00112173
vernier = 0.00149564
vernier = 0.000747819
Gmin = 3.31507e-007
vernier = 0.000997092
Gmin = 3.30785e-007
vernier = 0.00132946
vernier = 0.00177261
vernier = 0.000886303
Gmin = 3.29971e-007
vernier = 0.00118174
Gmin = 3.29095e-007
vernier = 0.00157565
vernier = 0.000787825
vernier = 0.00105043
Gmin = 3.28512e-007
vernier = 0.00140058
vernier = 0.000700288
Gmin = 3.27966e-007
vernier = 0.000933717
vernier = 0.00124496
Gmin = 3.271e-007
vernier = 0.00165994
vernier = 0.000829971
vernier = 0.00110663
Gmin = 3.26467e-007
vernier = 0.0014755
vernier = 0.000737751
Gmin = 3.25835e-007
vernier = 0.000983668
vernier = 0.00131156
Gmin = 3.25022e-007
vernier = 0.00174874
vernier = 0.000874371
Gmin = 3.24312e-007
vernier = 0.00116583
vernier = 0.00155444
vernier = 0.000777219
Gmin = 3.23612e-007
vernier = 0.00103629
Gmin = 3.22858e-007
vernier = 0.00138172
vernier = 0.000690861
vernier = 0.000921147
Gmin = 3.22357e-007
vernier = 0.0012282
vernier = 0.00163759
Gmin = 3.2141e-007
vernier = 0.000818797
vernier = 0.00109173
Gmin = 3.20862e-007
vernier = 0.00145564
vernier = 0.000727819
vernier = 0.000970425
Gmin = 3.20318e-007
vernier = 0.0012939
Gmin = 3.19413e-007
vernier = 0.0017252
vernier = 0.0008626
vernier = 0.00115013
Gmin = 3.18782e-007
vernier = 0.00153351
vernier = 0.000766755
Gmin = 3.18172e-007
vernier = 0.00102234
vernier = 0.00136312
vernier = 0.00068156
Gmin = 3.17569e-007
vernier = 0.000908746
Gmin = 3.1692e-007
vernier = 0.00121166
vernier = 0.00161555
vernier = 0.000807774
Gmin = 3.16217e-007
vernier = 0.00107703
vernier = 0.00143604
Gmin = 3.15403e-007
vernier = 0.000718021
vernier = 0.000957361
Gmin = 3.14931e-007
vernier = 0.00127648
vernier = 0.00170197
vernier = 0.000850987
Gmin = 3.14178e-007
vernier = 0.00113465
Gmin = 3.134e-007
vernier = 0.00151287
vernier = 0.000756433
vernier = 0.00100858
Gmin = 3.12857e-007
vernier = 0.00134477
vernier = 0.000672384
Gmin = 3.12331e-007
vernier = 0.000896512
vernier = 0.00119535
Gmin = 3.1158e-007
vernier = 0.0015938
vernier = 0.000796899
Gmin = 3.10991e-007
vernier = 0.00106253
vernier = 0.00141671
vernier = 0.000708355
Gmin = 3.10386e-007
vernier = 0.000944472
vernier = 0.0012593
Gmin = 3.09684e-007
vernier = 0.00167906
vernier = 0.000839531
Gmin = 3.09003e-007
vernier = 0.00111937
vernier = 0.0014925
vernier = 0.000746249
Gmin = 3.08355e-007
vernier = 0.000994999
Gmin = 3.07685e-007
vernier = 0.00132666
vernier = 0.000663332
vernier = 0.000884443
Gmin = 3.07217e-007
vernier = 0.00117926
Gmin = 3.06403e-007
vernier = 0.00157234
vernier = 0.000786171
vernier = 0.00104823
Gmin = 3.05862e-007
vernier = 0.00139764
vernier = 0.000698818
Gmin = 3.05355e-007
vernier = 0.000931757
vernier = 0.00124234
Gmin = 3.0455e-007
vernier = 0.00165646
vernier = 0.000828228
vernier = 0.0011043
Gmin = 3.03962e-007
vernier = 0.00147241
vernier = 0.000736203
Gmin = 3.03375e-007
vernier = 0.000981603
vernier = 0.0013088
vernier = 0.000654402
Gmin = 3.02817e-007
vernier = 0.000872536
Gmin = 3.0224e-007
vernier = 0.00116338
vernier = 0.00155117
vernier = 0.000775587
Gmin = 3.01589e-007
vernier = 0.00103412
Gmin = 3.00888e-007
vernier = 0.00137882
vernier = 0.00068941
vernier = 0.000919214
Gmin = 3.00422e-007
vernier = 0.00122562
vernier = 0.00163416
Gmin = 2.99541e-007
vernier = 0.000817078
vernier = 0.00108944
Gmin = 2.99031e-007
vernier = 0.00145258
vernier = 0.000726291
vernier = 0.000968388
Gmin = 2.98525e-007
vernier = 0.00129118
vernier = 0.000645592
Gmin = 2.9802e-007
vernier = 0.000860789
vernier = 0.00114772
Gmin = 2.97368e-007
vernier = 0.00153029
vernier = 0.000765146
Gmin = 2.968e-007
vernier = 0.00102019
vernier = 0.00136026
vernier = 0.000680129
Gmin = 2.96239e-007
vernier = 0.000906839
Gmin = 2.95636e-007
vernier = 0.00120912
vernier = 0.00161216
vernier = 0.000806078
Gmin = 2.94981e-007
vernier = 0.00107477
vernier = 0.00143303
Gmin = 2.94223e-007
vernier = 0.000716514
vernier = 0.000955351
Gmin = 2.93784e-007
vernier = 0.0012738
vernier = 0.000636901
vernier = 0.000849201
Gmin = 2.93348e-007
vernier = 0.00113227
Gmin = 2.92622e-007
vernier = 0.00150969
vernier = 0.000754845
vernier = 0.00100646
Gmin = 2.92116e-007
vernier = 0.00134195
vernier = 0.000670973
Gmin = 2.91627e-007
vernier = 0.00089463
vernier = 0.00119284
Gmin = 2.90927e-007
vernier = 0.00159045
vernier = 0.000795226
Gmin = 2.90378e-007
vernier = 0.0010603
vernier = 0.00141374
vernier = 0.000706868
Gmin = 2.89814e-007
vernier = 0.00094249
vernier = 0.00125665
Gmin = 2.8916e-007
vernier = 0.000628326
vernier = 0.000837768
Gmin = 2.88782e-007
vernier = 0.00111702
vernier = 0.00148937
vernier = 0.000744683
Gmin = 2.88178e-007
vernier = 0.00099291
Gmin = 2.87553e-007
vernier = 0.00132388
vernier = 0.00066194
vernier = 0.000882586
Gmin = 2.87117e-007
vernier = 0.00117678
Gmin = 2.86358e-007
vernier = 0.00156904
vernier = 0.000784521
vernier = 0.00104603
Gmin = 2.85853e-007
vernier = 0.0013947
vernier = 0.000697351
Gmin = 2.8538e-007
vernier = 0.000929802
vernier = 0.00123974
vernier = 0.000619868
Gmin = 2.84894e-007
vernier = 0.00082649
vernier = 0.00110199
Gmin = 2.8433e-007
vernier = 0.00146931
vernier = 0.000734657
Gmin = 2.83783e-007
vernier = 0.000979543
vernier = 0.00130606
vernier = 0.000653028
Gmin = 2.83262e-007
vernier = 0.000870704
Gmin = 2.82723e-007
vernier = 0.00116094
vernier = 0.00154792
vernier = 0.000773959
Gmin = 2.82115e-007
vernier = 0.00103194
Gmin = 2.81461e-007
vernier = 0.00137593
vernier = 0.000687963
vernier = 0.000917284
Gmin = 2.81026e-007
vernier = 0.00122304
vernier = 0.000611522
Gmin = 2.80618e-007
vernier = 0.000815363
vernier = 0.00108715
Gmin = 2.7997e-007
vernier = 0.00144953
vernier = 0.000724767
vernier = 0.000966356
Gmin = 2.79497e-007
vernier = 0.00128847
vernier = 0.000644237
Gmin = 2.79025e-007
vernier = 0.000858982
vernier = 0.00114531
Gmin = 2.78417e-007
vernier = 0.00152708
vernier = 0.000763539
Gmin = 2.77886e-007
vernier = 0.00101805
vernier = 0.0013574
vernier = 0.000678701
Gmin = 2.77362e-007
vernier = 0.000904935
Gmin = 2.76798e-007
vernier = 0.00120658
vernier = 0.00060329
vernier = 0.000804386
Gmin = 2.76422e-007
vernier = 0.00107251
vernier = 0.00143002
Gmin = 2.75713e-007
vernier = 0.00071501
vernier = 0.000953346
Gmin = 2.75303e-007
vernier = 0.00127113
vernier = 0.000635564
vernier = 0.000847418
Gmin = 2.74895e-007
vernier = 0.00112989
Gmin = 2.74216e-007
vernier = 0.00150652
vernier = 0.00075326
vernier = 0.00100435
Gmin = 2.73743e-007
vernier = 0.00133913
vernier = 0.000669564
Gmin = 2.73285e-007
vernier = 0.000892752
vernier = 0.00119034
vernier = 0.000595168
Gmin = 2.72834e-007
vernier = 0.000793557
Gmin = 2.72347e-007
vernier = 0.00105808
vernier = 0.00141077
vernier = 0.000705384
Gmin = 2.71819e-007
vernier = 0.000940511
vernier = 0.00125401
Gmin = 2.71207e-007
vernier = 0.000627007
vernier = 0.00083601
Gmin = 2.70853e-007
vernier = 0.00111468
vernier = 0.00148624
vernier = 0.000743119
Gmin = 2.70288e-007
vernier = 0.000990826
Gmin = 2.69703e-007
vernier = 0.0013211
vernier = 0.00066055
vernier = 0.000880733
Gmin = 2.69295e-007
vernier = 0.00117431
vernier = 0.000587155
Gmin = 2.689e-007
vernier = 0.000782874
vernier = 0.00104383
Gmin = 2.68335e-007
vernier = 0.00139177
vernier = 0.000695887
Gmin = 2.67892e-007
vernier = 0.00092785
vernier = 0.00123713
vernier = 0.000618566
Gmin = 2.67436e-007
vernier = 0.000824755
vernier = 0.00109967
Gmin = 2.66909e-007
vernier = 0.00146623
vernier = 0.000733115
Gmin = 2.66396e-007
vernier = 0.000977487
vernier = 0.00130332
vernier = 0.000651658
Gmin = 2.65908e-007
vernier = 0.000868876
Gmin = 2.65403e-007
vernier = 0.0011585
vernier = 0.000579251
vernier = 0.000772334
Gmin = 2.65051e-007
vernier = 0.00102978
Gmin = 2.64438e-007
vernier = 0.00137304
vernier = 0.000686519
vernier = 0.000915358
Gmin = 2.64029e-007
vernier = 0.00122048
vernier = 0.000610239
Gmin = 2.63647e-007
vernier = 0.000813652
vernier = 0.00108487
Gmin = 2.6304e-007
vernier = 0.00144649
vernier = 0.000723245
vernier = 0.000964327
Gmin = 2.62597e-007
vernier = 0.00128577
vernier = 0.000642885
Gmin = 2.62154e-007
vernier = 0.000857179
vernier = 0.00114291
vernier = 0.000571453
Gmin = 2.61733e-007
vernier = 0.000761937
Gmin = 2.61297e-007
vernier = 0.00101592
vernier = 0.00135455
vernier = 0.000677277
Gmin = 2.60805e-007
vernier = 0.000903035
Gmin = 2.60276e-007
vernier = 0.00120405
vernier = 0.000602023
vernier = 0.000802698
Gmin = 2.59924e-007
vernier = 0.00107026
vernier = 0.00142702
Gmin = 2.59258e-007
vernier = 0.000713509
vernier = 0.000951345
Gmin = 2.58873e-007
vernier = 0.00126846
vernier = 0.00063423
vernier = 0.000845639
Gmin = 2.5849e-007
vernier = 0.00112752
vernier = 0.000563759
Gmin = 2.58108e-007
vernier = 0.000751679
vernier = 0.00100224
Gmin = 2.57616e-007
vernier = 0.00133632
vernier = 0.000668159
Gmin = 2.57186e-007
vernier = 0.000890878
vernier = 0.00118784
vernier = 0.000593919
Gmin = 2.56761e-007
vernier = 0.000791891
Gmin = 2.56304e-007
vernier = 0.00105585
vernier = 0.00140781
vernier = 0.000703903
Gmin = 2.55809e-007
vernier = 0.000938537
vernier = 0.00125138
Gmin = 2.55234e-007
vernier = 0.000625691
vernier = 0.000834255
Gmin = 2.54902e-007
vernier = 0.00111234
vernier = 0.00055617
vernier = 0.000741559
Gmin = 2.54571e-007
vernier = 0.000988746
Gmin = 2.54021e-007
vernier = 0.00131833
vernier = 0.000659164
vernier = 0.000878885
Gmin = 2.53638e-007
vernier = 0.00117185
vernier = 0.000585923
Gmin = 2.53267e-007
vernier = 0.00078123
vernier = 0.00104164
Gmin = 2.52735e-007
vernier = 0.00138885
vernier = 0.000694427
Gmin = 2.52319e-007
vernier = 0.000925902
vernier = 0.00123454
vernier = 0.000617268
Gmin = 2.51891e-007
vernier = 0.000823024
vernier = 0.00109736
Gmin = 2.51395e-007
vernier = 0.000548682
vernier = 0.000731576
Gmin = 2.51108e-007
vernier = 0.000975435
vernier = 0.00130058
vernier = 0.00065029
Gmin = 2.50649e-007
vernier = 0.000867053
Gmin = 2.50174e-007
vernier = 0.00115607
vernier = 0.000578035
vernier = 0.000770713
Gmin = 2.49843e-007
vernier = 0.00102762
Gmin = 2.49266e-007
vernier = 0.00137016
vernier = 0.000685078
vernier = 0.000913437
Gmin = 2.48882e-007
vernier = 0.00121792
vernier = 0.000608958
Gmin = 2.48522e-007
vernier = 0.000811944
vernier = 0.00108259
vernier = 0.000541296
Gmin = 2.48153e-007
vernier = 0.000721727
vernier = 0.000962303
Gmin = 2.47724e-007
vernier = 0.00128307
vernier = 0.000641535
Gmin = 2.47307e-007
vernier = 0.00085538
vernier = 0.00114051
vernier = 0.000570253
Gmin = 2.46911e-007
vernier = 0.000760337
Gmin = 2.46501e-007
vernier = 0.00101378
vernier = 0.00135171
vernier = 0.000675855
Gmin = 2.46038e-007
vernier = 0.00090114
Gmin = 2.4554e-007
vernier = 0.00120152
vernier = 0.00060076
vernier = 0.000801013
Gmin = 2.45208e-007
vernier = 0.00106802
vernier = 0.000534008
Gmin = 2.44897e-007
vernier = 0.000712011
vernier = 0.000949348
Gmin = 2.44404e-007
vernier = 0.0012658
vernier = 0.000632898
vernier = 0.000843864
Gmin = 2.44043e-007
vernier = 0.00112515
vernier = 0.000562576
Gmin = 2.43683e-007
vernier = 0.000750101
vernier = 0.00100013
Gmin = 2.43219e-007
vernier = 0.00133351
vernier = 0.000666756
Gmin = 2.42814e-007
vernier = 0.000889008
vernier = 0.00118534
vernier = 0.000592672
Gmin = 2.42414e-007
vernier = 0.000790229
Gmin = 2.41983e-007
vernier = 0.00105364
vernier = 0.000526819
vernier = 0.000702425
Gmin = 2.41697e-007
vernier = 0.000936567
vernier = 0.00124876
Gmin = 2.41155e-007
vernier = 0.000624378
vernier = 0.000832504
Gmin = 2.40842e-007
vernier = 0.00111
vernier = 0.000555002
vernier = 0.000740003
Gmin = 2.4053e-007
vernier = 0.00098667
Gmin = 2.40011e-007
vernier = 0.00131556
vernier = 0.00065778
vernier = 0.00087704
Gmin = 2.3965e-007
vernier = 0.00116939
vernier = 0.000584693
Gmin = 2.393e-007
vernier = 0.00077959
vernier = 0.00103945
vernier = 0.000519727
Gmin = 2.38954e-007
vernier = 0.000692969
Gmin = 2.38582e-007
vernier = 0.000923958
vernier = 0.00123194
vernier = 0.000615972
Gmin = 2.38178e-007
vernier = 0.000821296
vernier = 0.00109506
Gmin = 2.3771e-007
vernier = 0.00054753
vernier = 0.00073004
Gmin = 2.37439e-007
vernier = 0.000973387
vernier = 0.00129785
vernier = 0.000648924
Gmin = 2.37006e-007
vernier = 0.000865232
Gmin = 2.36558e-007
vernier = 0.00115364
vernier = 0.000576821
vernier = 0.000769095
Gmin = 2.36246e-007
vernier = 0.00102546
vernier = 0.00051273
Gmin = 2.35943e-007
vernier = 0.00068364
vernier = 0.000911519
Gmin = 2.3551e-007
vernier = 0.00121536
vernier = 0.000607679
Gmin = 2.3517e-007
vernier = 0.000810239
vernier = 0.00108032
vernier = 0.000540159
Gmin = 2.34821e-007
vernier = 0.000720212
vernier = 0.000960283
Gmin = 2.34416e-007
vernier = 0.00128038
vernier = 0.000640188
Gmin = 2.34023e-007
vernier = 0.000853584
vernier = 0.00113811
vernier = 0.000569056
Gmin = 2.33649e-007
vernier = 0.000758741
Gmin = 2.33261e-007
vernier = 0.00101165
vernier = 0.000505827
vernier = 0.000674436
Gmin = 2.32991e-007
vernier = 0.000899248
Gmin = 2.3252e-007
vernier = 0.001199
vernier = 0.000599499
vernier = 0.000799331
Gmin = 2.32207e-007
vernier = 0.00106577
vernier = 0.000532887
Gmin = 2.31913e-007
vernier = 0.000710516
vernier = 0.000947355
Gmin = 2.31447e-007
vernier = 0.00126314
vernier = 0.00063157
vernier = 0.000842093
Gmin = 2.31106e-007
vernier = 0.00112279
vernier = 0.000561395
Gmin = 2.30766e-007
vernier = 0.000748526
vernier = 0.000998035
vernier = 0.000499018
Gmin = 2.30442e-007
vernier = 0.000665357
Gmin = 2.30107e-007
vernier = 0.000887142
vernier = 0.00118286
vernier = 0.000591428
Gmin = 2.29729e-007
vernier = 0.00078857
Gmin = 2.29322e-007
vernier = 0.00105143
vernier = 0.000525713
vernier = 0.000700951
Gmin = 2.2905e-007
vernier = 0.000934601
vernier = 0.00124613
Gmin = 2.28538e-007
vernier = 0.000623067
vernier = 0.000830756
Gmin = 2.28242e-007
vernier = 0.00110767
vernier = 0.000553837
vernier = 0.000738449
Gmin = 2.27947e-007
vernier = 0.000984599
vernier = 0.000492299
Gmin = 2.27653e-007
vernier = 0.000656399
vernier = 0.000875199
Gmin = 2.27273e-007
vernier = 0.00116693
vernier = 0.000583466
Gmin = 2.26942e-007
vernier = 0.000777954
vernier = 0.00103727
vernier = 0.000518636
Gmin = 2.26615e-007
vernier = 0.000691514
Gmin = 2.26263e-007
vernier = 0.000922019
vernier = 0.00122936
vernier = 0.000614679
Gmin = 2.25881e-007
vernier = 0.000819572
vernier = 0.00109276
Gmin = 2.25437e-007
vernier = 0.000546381
vernier = 0.000728508
Gmin = 2.25181e-007
vernier = 0.000971344
vernier = 0.000485672
vernier = 0.000647562
Gmin = 2.24926e-007
vernier = 0.000863416
Gmin = 2.24502e-007
vernier = 0.00115122
vernier = 0.000575611
vernier = 0.000767481
Gmin = 2.24206e-007
vernier = 0.00102331
vernier = 0.000511654
Gmin = 2.23919e-007
vernier = 0.000682205
vernier = 0.000909606
Gmin = 2.23509e-007
vernier = 0.00121281
vernier = 0.000606404
Gmin = 2.23187e-007
vernier = 0.000808538
vernier = 0.00107805
vernier = 0.000539025
Gmin = 2.22857e-007
vernier = 0.0007187
vernier = 0.000958267
Gmin = 2.22473e-007
vernier = 0.000479133
vernier = 0.000638844
Gmin = 2.22251e-007
vernier = 0.000851792
vernier = 0.00113572
vernier = 0.000567861
Gmin = 2.21897e-007
vernier = 0.000757148
Gmin = 2.2153e-007
vernier = 0.00100953
vernier = 0.000504765
vernier = 0.00067302
Gmin = 2.21274e-007
vernier = 0.00089736
Gmin = 2.20827e-007
vernier = 0.00119648
vernier = 0.00059824
vernier = 0.000797653
Gmin = 2.2053e-007
vernier = 0.00106354
vernier = 0.000531769
Gmin = 2.20252e-007
vernier = 0.000709025
vernier = 0.000945366
vernier = 0.000472683
Gmin = 2.19966e-007
vernier = 0.000630244
vernier = 0.000840325
Gmin = 2.19634e-007
vernier = 0.00112043
vernier = 0.000560217
Gmin = 2.19311e-007
vernier = 0.000746955
vernier = 0.00099594
vernier = 0.00049797
Gmin = 2.19004e-007
vernier = 0.00066396
Gmin = 2.18687e-007
vernier = 0.00088528
vernier = 0.00118037
vernier = 0.000590186
Gmin = 2.18328e-007
vernier = 0.000786915
Gmin = 2.17942e-007
vernier = 0.00104922
vernier = 0.00052461
vernier = 0.000699479
Gmin = 2.17685e-007
vernier = 0.000932639
vernier = 0.00124352
Gmin = 2.17199e-007
vernier = 0.000621759
vernier = 0.000829012
Gmin = 2.16918e-007
vernier = 0.00110535
vernier = 0.000552675
vernier = 0.000736899
Gmin = 2.16638e-007
vernier = 0.000982532
vernier = 0.000491266
Gmin = 2.16359e-007
vernier = 0.000655021
vernier = 0.000873361
Gmin = 2.15999e-007
vernier = 0.00116448
vernier = 0.000582241
Gmin = 2.15685e-007
vernier = 0.000776321
vernier = 0.00103509
vernier = 0.000517547
Gmin = 2.15375e-007
vernier = 0.000690063
Gmin = 2.15041e-007
vernier = 0.000920083
vernier = 0.00122678
vernier = 0.000613389
Gmin = 2.14678e-007
vernier = 0.000817851
vernier = 0.00109047
Gmin = 2.14258e-007
vernier = 0.000545234
vernier = 0.000726979
Gmin = 2.14015e-007
vernier = 0.000969305
vernier = 0.000484652
vernier = 0.000646203
Gmin = 2.13773e-007
vernier = 0.000861604
Gmin = 2.1337e-007
vernier = 0.0011488
vernier = 0.000574402
vernier = 0.00076587
Gmin = 2.1309e-007
vernier = 0.00102116
vernier = 0.00051058
Gmin = 2.12818e-007
vernier = 0.000680773
vernier = 0.000907697
Gmin = 2.12429e-007
vernier = 0.00121026
vernier = 0.000605131
Gmin = 2.12124e-007
vernier = 0.000806841
vernier = 0.00107579
vernier = 0.000537894
Gmin = 2.1181e-007
vernier = 0.000717192
vernier = 0.000956255
Gmin = 2.11447e-007
vernier = 0.000478128
vernier = 0.000637503
Gmin = 2.11236e-007
vernier = 0.000850004
vernier = 0.00113334
vernier = 0.000566669
Gmin = 2.109e-007
vernier = 0.000755559
Gmin = 2.10552e-007
vernier = 0.00100741
vernier = 0.000503706
vernier = 0.000671608
Gmin = 2.10309e-007
vernier = 0.000895477
Gmin = 2.09886e-007
vernier = 0.00119397
vernier = 0.000596984
vernier = 0.000795979
Gmin = 2.09604e-007
vernier = 0.0010613
vernier = 0.000530652
Gmin = 2.0934e-007
vernier = 0.000707536
vernier = 0.000943382
vernier = 0.000471691
Gmin = 2.09069e-007
vernier = 0.000628921
vernier = 0.000838561
Gmin = 2.08754e-007
vernier = 0.00111808
vernier = 0.000559041
Gmin = 2.08448e-007
vernier = 0.000745387
vernier = 0.000993849
vernier = 0.000496925
Gmin = 2.08157e-007
vernier = 0.000662566
Gmin = 2.07855e-007
vernier = 0.000883421
vernier = 0.00117789
vernier = 0.000588947
Gmin = 2.07515e-007
vernier = 0.000785263
Gmin = 2.07149e-007
vernier = 0.00104702
vernier = 0.000523508
vernier = 0.000698011
Gmin = 2.06905e-007
vernier = 0.000930681
vernier = 0.000465341
Gmin = 2.06676e-007
vernier = 0.000620454
vernier = 0.000827272
Gmin = 2.06313e-007
vernier = 0.00110303
vernier = 0.000551514
vernier = 0.000735352
Gmin = 2.06048e-007
vernier = 0.00098047
vernier = 0.000490235
Gmin = 2.05783e-007
vernier = 0.000653646
vernier = 0.000871528
Gmin = 2.05442e-007
vernier = 0.00116204
vernier = 0.000581019
Gmin = 2.05143e-007
vernier = 0.000774691
vernier = 0.00103292
vernier = 0.000516461
Gmin = 2.04849e-007
vernier = 0.000688614
Gmin = 2.04532e-007
vernier = 0.000918152
vernier = 0.000459076
vernier = 0.000612101
Gmin = 2.04321e-007
vernier = 0.000816135
vernier = 0.00108818
Gmin = 2.03922e-007
vernier = 0.00054409
vernier = 0.000725453
Gmin = 2.03691e-007
vernier = 0.00096727
vernier = 0.000483635
vernier = 0.000644846
Gmin = 2.03461e-007
vernier = 0.000859795
Gmin = 2.03079e-007
vernier = 0.00114639
vernier = 0.000573197
vernier = 0.000764262
Gmin = 2.02812e-007
vernier = 0.00101902
vernier = 0.000509508
Gmin = 2.02554e-007
vernier = 0.000679344
vernier = 0.000905791
vernier = 0.000452896
Gmin = 2.02299e-007
vernier = 0.000603861
Gmin = 2.02024e-007
vernier = 0.000805147
vernier = 0.00107353
vernier = 0.000536765
Gmin = 2.01726e-007
vernier = 0.000715686
vernier = 0.000954248
Gmin = 2.01381e-007
vernier = 0.000477124
vernier = 0.000636165
Gmin = 2.01181e-007
vernier = 0.00084822
vernier = 0.00113096
vernier = 0.00056548
Gmin = 2.00861e-007
vernier = 0.000753973
Gmin = 2.0053e-007
vernier = 0.0010053
vernier = 0.000502648
vernier = 0.000670198
Gmin = 2.00299e-007
vernier = 0.000893597
vernier = 0.000446798
Gmin = 2.00076e-007
vernier = 0.000595731
vernier = 0.000794308
Gmin = 1.99756e-007
vernier = 0.00105908
vernier = 0.000529538
Gmin = 1.99505e-007
vernier = 0.000706051
vernier = 0.000941401
vernier = 0.000470701
Gmin = 1.99246e-007
vernier = 0.000627601
vernier = 0.000836801
Gmin = 1.98947e-007
vernier = 0.00111573
vernier = 0.000557867
Gmin = 1.98656e-007
vernier = 0.000743823
vernier = 0.000991763
vernier = 0.000495882
Gmin = 1.98379e-007
vernier = 0.000661175
Gmin = 1.98092e-007
vernier = 0.000881567
vernier = 0.000440783
vernier = 0.000587711
Gmin = 1.97893e-007
vernier = 0.000783615
Gmin = 1.97544e-007
vernier = 0.00104482
vernier = 0.00052241
vernier = 0.000696546
Gmin = 1.97312e-007
vernier = 0.000928728
vernier = 0.000464364
Gmin = 1.97094e-007
vernier = 0.000619152
vernier = 0.000825535
Gmin = 1.96749e-007
vernier = 0.00110071
vernier = 0.000550357
vernier = 0.000733809
Gmin = 1.96497e-007
vernier = 0.000978411
vernier = 0.000489206
Gmin = 1.96244e-007
vernier = 0.000652274
vernier = 0.000869699
vernier = 0.000434849
Gmin = 1.96005e-007
vernier = 0.000579799
Gmin = 1.95756e-007
vernier = 0.000773065
vernier = 0.00103075
vernier = 0.000515377
Gmin = 1.95476e-007
vernier = 0.000687169
Gmin = 1.95174e-007
vernier = 0.000916225
vernier = 0.000458112
vernier = 0.000610816
Gmin = 1.94973e-007
vernier = 0.000814421
vernier = 0.00108589
Gmin = 1.94593e-007
vernier = 0.000542947
vernier = 0.00072393
Gmin = 1.94373e-007
vernier = 0.000965239
vernier = 0.00048262
vernier = 0.000643493
Gmin = 1.94154e-007
vernier = 0.00085799
vernier = 0.000428995
Gmin = 1.93935e-007
vernier = 0.000571993
vernier = 0.000762658
Gmin = 1.93654e-007
vernier = 0.00101688
vernier = 0.000508438
Gmin = 1.93408e-007
vernier = 0.000677917
vernier = 0.00090389
vernier = 0.000451945
Gmin = 1.93165e-007
vernier = 0.000602593
Gmin = 1.92903e-007
vernier = 0.000803457
vernier = 0.00107128
vernier = 0.000535638
Gmin = 1.92619e-007
vernier = 0.000714184
vernier = 0.000952245
Gmin = 1.9229e-007
vernier = 0.000476122
vernier = 0.00063483
Gmin = 1.92099e-007
vernier = 0.000846439
vernier = 0.00042322
vernier = 0.000564293
Gmin = 1.9191e-007
vernier = 0.00075239
Gmin = 1.91594e-007
vernier = 0.00100319
vernier = 0.000501593
vernier = 0.000668791
Gmin = 1.91374e-007
vernier = 0.000891721
vernier = 0.000445861
Gmin = 1.91161e-007
vernier = 0.000594481
vernier = 0.000792641
Gmin = 1.90856e-007
vernier = 0.00105685
vernier = 0.000528427
Gmin = 1.90616e-007
vernier = 0.000704569
vernier = 0.000939425
vernier = 0.000469713
Gmin = 1.9037e-007
vernier = 0.000626283
vernier = 0.000835044
Gmin = 1.90085e-007
vernier = 0.00111339
vernier = 0.000556696
Gmin = 1.89807e-007
vernier = 0.000742261
vernier = 0.000989681
vernier = 0.000494841
Gmin = 1.89543e-007
vernier = 0.000659787
Gmin = 1.8927e-007
vernier = 0.000879716
vernier = 0.000439858
vernier = 0.000586477
Gmin = 1.89079e-007
vernier = 0.00078197
Gmin = 1.88747e-007
vernier = 0.00104263
vernier = 0.000521313
vernier = 0.000695084
Gmin = 1.88526e-007
vernier = 0.000926778
vernier = 0.000463389
Gmin = 1.88318e-007
vernier = 0.000617852
vernier = 0.000823802
Gmin = 1.87989e-007
vernier = 0.0010984
vernier = 0.000549201
vernier = 0.000732268
Gmin = 1.87748e-007
vernier = 0.000976358
vernier = 0.000488179
Gmin = 1.87508e-007
vernier = 0.000650905
vernier = 0.000867873
vernier = 0.000433936
Gmin = 1.87279e-007
vernier = 0.000578582
Gmin = 1.87042e-007
vernier = 0.000771442
vernier = 0.00102859
vernier = 0.000514295
Gmin = 1.86775e-007
vernier = 0.000685726
Gmin = 1.86487e-007
vernier = 0.000914301
vernier = 0.000457151
vernier = 0.000609534
Gmin = 1.86295e-007
vernier = 0.000812712
vernier = 0.00108362
Gmin = 1.85933e-007
vernier = 0.000541808
vernier = 0.00072241
Gmin = 1.85723e-007
vernier = 0.000963213
vernier = 0.000481607
vernier = 0.000642142
Gmin = 1.85515e-007
vernier = 0.000856189
vernier = 0.000428095
Gmin = 1.85306e-007
vernier = 0.000570793
vernier = 0.000761057
Gmin = 1.85038e-007
vernier = 0.00101474
vernier = 0.000507371
Gmin = 1.84803e-007
vernier = 0.000676494
vernier = 0.000901992
vernier = 0.000450996
Gmin = 1.84572e-007
vernier = 0.000601328
Gmin = 1.84322e-007
vernier = 0.000801771
vernier = 0.00106903
vernier = 0.000534514
Gmin = 1.84051e-007
vernier = 0.000712685
vernier = 0.000950246
Gmin = 1.83737e-007
vernier = 0.000475123
vernier = 0.000633497
Gmin = 1.83556e-007
vernier = 0.000844663
vernier = 0.000422331
vernier = 0.000563108
Gmin = 1.83375e-007
vernier = 0.000750811
Gmin = 1.83074e-007
vernier = 0.00100108
vernier = 0.00050054
vernier = 0.000667387
Gmin = 1.82864e-007
vernier = 0.000889849
vernier = 0.000444925
Gmin = 1.82661e-007
vernier = 0.000593233
vernier = 0.000790977
Gmin = 1.8237e-007
vernier = 0.00105464
vernier = 0.000527318
Gmin = 1.82142e-007
vernier = 0.00070309
vernier = 0.000937453
vernier = 0.000468727
Gmin = 1.81907e-007
vernier = 0.000624969
vernier = 0.000833291
Gmin = 1.81635e-007
vernier = 0.000416646
vernier = 0.000555527
Gmin = 1.81477e-007
vernier = 0.000740703
vernier = 0.000987604
vernier = 0.000493802
Gmin = 1.81225e-007
vernier = 0.000658402
Gmin = 1.80965e-007
vernier = 0.00087787
vernier = 0.000438935
vernier = 0.000585246
Gmin = 1.80783e-007
vernier = 0.000780328
Gmin = 1.80466e-007
vernier = 0.00104044
vernier = 0.000520219
vernier = 0.000693625
Gmin = 1.80255e-007
vernier = 0.000924833
vernier = 0.000462416
Gmin = 1.80057e-007
vernier = 0.000616555
vernier = 0.000822073
vernier = 0.000411036
Gmin = 1.79853e-007
vernier = 0.000548049
vernier = 0.000730731
Gmin = 1.79617e-007
vernier = 0.000974308
vernier = 0.000487154
Gmin = 1.79388e-007
vernier = 0.000649538
vernier = 0.000866051
vernier = 0.000433026
Gmin = 1.79169e-007
vernier = 0.000577367
Gmin = 1.78943e-007
vernier = 0.000769823
vernier = 0.00102643
vernier = 0.000513215
Gmin = 1.78688e-007
vernier = 0.000684287
Gmin = 1.78413e-007
vernier = 0.000912382
vernier = 0.000456191
vernier = 0.000608254
Gmin = 1.7823e-007
vernier = 0.000811006
vernier = 0.000405503
Gmin = 1.78059e-007
vernier = 0.00054067
vernier = 0.000720894
Gmin = 1.77786e-007
vernier = 0.000961191
vernier = 0.000480596
vernier = 0.000640794
Gmin = 1.77587e-007
vernier = 0.000854392
vernier = 0.000427196
Gmin = 1.77388e-007
vernier = 0.000569594
vernier = 0.000759459
Gmin = 1.77131e-007
vernier = 0.00101261
vernier = 0.000506306
Gmin = 1.76907e-007
vernier = 0.000675074
vernier = 0.000900099
vernier = 0.000450049
Gmin = 1.76686e-007
vernier = 0.000600066
Gmin = 1.76448e-007
vernier = 0.000800088
vernier = 0.000400044
vernier = 0.000533392
Gmin = 1.76289e-007
vernier = 0.000711189
vernier = 0.000948251
Gmin = 1.75989e-007
vernier = 0.000474126
vernier = 0.000632167
Gmin = 1.75815e-007
vernier = 0.000842889
vernier = 0.000421445
vernier = 0.000561926
Gmin = 1.75642e-007
vernier = 0.000749235
Gmin = 1.75355e-007
vernier = 0.000998979
vernier = 0.00049949
vernier = 0.000665986
Gmin = 1.75154e-007
vernier = 0.000887981
vernier = 0.000443991
Gmin = 1.7496e-007
vernier = 0.000591987
vernier = 0.000789316
vernier = 0.000591987
Gmin = 1.74759e-007
vernier = 0.000789316
vernier = 0.000591987
Gmin = 1.74552e-007
vernier = 0.000789316
vernier = 0.000591987
vernier = 0.000789316
vernier = 0.000591987
Gmin = 1.74397e-007
vernier = 0.000789315
vernier = 0.000591987
Gmin = 1.74191e-007
vernier = 0.000789315
vernier = 0.000591986
vernier = 0.000789315
Gmin = 1.73976e-007
vernier = 0.000591986
vernier = 0.000789315
vernier = 0.000591986
Gmin = 1.73831e-007
vernier = 0.000789315
vernier = 0.000591986
Gmin = 1.73625e-007
vernier = 0.000789314
vernier = 0.000591986
vernier = 0.000789314
vernier = 0.000591986
Gmin = 1.73471e-007
vernier = 0.000789314
vernier = 0.000591986
Gmin = 1.73266e-007
vernier = 0.000789314
vernier = 0.000591985
vernier = 0.000789314
vernier = 0.000591985
Gmin = 1.73112e-007
vernier = 0.000789313
vernier = 0.000591985
Gmin = 1.72907e-007
vernier = 0.000789313
vernier = 0.000591985
vernier = 0.000789313
Gmin = 1.72694e-007
vernier = 0.000591985
vernier = 0.000789313
vernier = 0.000591985
Gmin = 1.72549e-007
vernier = 0.000789313
vernier = 0.000591985
Gmin = 1.72345e-007
vernier = 0.000789313
vernier = 0.000591984
vernier = 0.000789312
vernier = 0.000591984
Gmin = 1.72192e-007
vernier = 0.000789312
vernier = 0.000591984
Gmin = 1.71988e-007
vernier = 0.000789312
vernier = 0.000591984
vernier = 0.000789312
vernier = 0.000591984
Gmin = 1.71836e-007
vernier = 0.000789312
vernier = 0.000591984
Gmin = 1.71632e-007
vernier = 0.000789311
vernier = 0.000591983
vernier = 0.000789311
Gmin = 1.71421e-007
vernier = 0.000591983
vernier = 0.000789311
vernier = 0.000591983
Gmin = 1.71277e-007
vernier = 0.000789311
vernier = 0.000591983
Gmin = 1.71074e-007
vernier = 0.000789311
vernier = 0.000591983
vernier = 0.00078931
vernier = 0.000591983
Gmin = 1.70923e-007
vernier = 0.00078931
vernier = 0.000591983
Gmin = 1.7072e-007
vernier = 0.00078931
vernier = 0.000591982
vernier = 0.00078931
vernier = 0.000591982
Gmin = 1.70569e-007
vernier = 0.00078931
vernier = 0.000591982
Gmin = 1.70367e-007
vernier = 0.000789309
vernier = 0.000591982
vernier = 0.000789309
Gmin = 1.70157e-007
vernier = 0.000591982
vernier = 0.000789309
vernier = 0.000591982
Gmin = 1.70014e-007
vernier = 0.000789309
vernier = 0.000591982
Gmin = 1.69813e-007
vernier = 0.000789309
vernier = 0.000591981
vernier = 0.000789308
vernier = 0.000591981
Gmin = 1.69663e-007
vernier = 0.000789308
vernier = 0.000591981
Gmin = 1.69462e-007
vernier = 0.000789308
vernier = 0.000591981
vernier = 0.000789308
vernier = 0.000591981
Gmin = 1.69311e-007
vernier = 0.000789308
vernier = 0.000591981
Gmin = 1.69111e-007
vernier = 0.000789307
vernier = 0.000591981
vernier = 0.000789307
Gmin = 1.68903e-007
vernier = 0.00059198
vernier = 0.000789307
vernier = 0.00059198
Gmin = 1.68761e-007
vernier = 0.000789307
vernier = 0.00059198
Gmin = 1.68561e-007
vernier = 0.000789307
vernier = 0.00059198
vernier = 0.000789306
vernier = 0.00059198
Gmin = 1.68412e-007
vernier = 0.000789306
vernier = 0.00059198
Gmin = 1.68213e-007
vernier = 0.000789306
vernier = 0.00059198
vernier = 0.000789306
vernier = 0.000591979
Gmin = 1.68063e-007
vernier = 0.000789306
vernier = 0.000591979
Gmin = 1.67864e-007
vernier = 0.000789305
vernier = 0.000591979
vernier = 0.000789305
Gmin = 1.67658e-007
vernier = 0.000591979
vernier = 0.000789305
vernier = 0.000591979
Gmin = 1.67517e-007
vernier = 0.000789305
vernier = 0.000591979
Gmin = 1.67319e-007
vernier = 0.000789305
vernier = 0.000591978
vernier = 0.000789304
vernier = 0.000591978
Gmin = 1.6717e-007
vernier = 0.000789304
vernier = 0.000591978
Gmin = 1.66973e-007
vernier = 0.000789304
vernier = 0.000591978
vernier = 0.000789304
vernier = 0.000591978
Gmin = 1.66824e-007
vernier = 0.000789304
vernier = 0.000591978
Gmin = 1.66627e-007
vernier = 0.000789303
vernier = 0.000591978
vernier = 0.000789303
Gmin = 1.66422e-007
vernier = 0.000591977
vernier = 0.000789303
vernier = 0.000591977
Gmin = 1.66282e-007
vernier = 0.000789303
vernier = 0.000591977
Gmin = 1.66085e-007
vernier = 0.000789303
vernier = 0.000591977
vernier = 0.000789302
vernier = 0.000591977
Gmin = 1.65938e-007
vernier = 0.000789302
vernier = 0.000591977
Gmin = 1.65742e-007
vernier = 0.000789302
vernier = 0.000591977
vernier = 0.000789302
vernier = 0.000591976
Gmin = 1.65595e-007
vernier = 0.000789302
vernier = 0.000591976
Gmin = 1.65399e-007
vernier = 0.000789301
vernier = 0.000591976
vernier = 0.000789301
Gmin = 1.65195e-007
vernier = 0.000591976
vernier = 0.000789301
vernier = 0.000591976
Gmin = 1.65056e-007
vernier = 0.000789301
vernier = 0.000591976
Gmin = 1.64861e-007
vernier = 0.000789301
vernier = 0.000591976
vernier = 0.0007893
vernier = 0.000591975
Gmin = 1.64715e-007
vernier = 0.0007893
vernier = 0.000591975
Gmin = 1.6452e-007
vernier = 0.0007893
vernier = 0.000591975
vernier = 0.0007893
vernier = 0.000591975
Gmin = 1.64374e-007
vernier = 0.0007893
vernier = 0.000591975
Gmin = 1.64179e-007
vernier = 0.000789299
vernier = 0.000591975
vernier = 0.000789299
Gmin = 1.63977e-007
vernier = 0.000591974
vernier = 0.000789299
vernier = 0.000591974
Gmin = 1.6384e-007
vernier = 0.000789299
vernier = 0.000591974
Gmin = 1.63646e-007
vernier = 0.000789299
vernier = 0.000591974
vernier = 0.000789299
vernier = 0.000591974
Gmin = 1.635e-007
vernier = 0.000789298
vernier = 0.000591974
Gmin = 1.63307e-007
vernier = 0.000789298
vernier = 0.000591974
vernier = 0.000789298
vernier = 0.000591973
Gmin = 1.63162e-007
vernier = 0.000789298
vernier = 0.000591973
Gmin = 1.62969e-007
vernier = 0.000789298
vernier = 0.000591973
vernier = 0.000789297
Gmin = 1.62768e-007
vernier = 0.000591973
vernier = 0.000789297
vernier = 0.000591973
Gmin = 1.62632e-007
vernier = 0.000789297
vernier = 0.000591973
Gmin = 1.62439e-007
vernier = 0.000789297
vernier = 0.000591973
vernier = 0.000789297
vernier = 0.000591972
Gmin = 1.62295e-007
vernier = 0.000789296
vernier = 0.000591972
Gmin = 1.62103e-007
vernier = 0.000789296
vernier = 0.000591972
vernier = 0.000789296
vernier = 0.000591972
Gmin = 1.61959e-007
vernier = 0.000789296
vernier = 0.000591972
Gmin = 1.61768e-007
vernier = 0.000789296
vernier = 0.000591972
vernier = 0.000789295
Gmin = 1.61568e-007
vernier = 0.000591972
vernier = 0.000789295
vernier = 0.000591971
Gmin = 1.61433e-007
vernier = 0.000789295
vernier = 0.000591971
Gmin = 1.61242e-007
vernier = 0.000789295
vernier = 0.000591971
vernier = 0.000789295
vernier = 0.000591971
Gmin = 1.61099e-007
vernier = 0.000789294
vernier = 0.000591971
Gmin = 1.60908e-007
vernier = 0.000789294
vernier = 0.000591971
vernier = 0.000789294
vernier = 0.00059197
Gmin = 1.60765e-007
vernier = 0.000789294
vernier = 0.00059197
Gmin = 1.60575e-007
vernier = 0.000789294
vernier = 0.00059197
vernier = 0.000789293
Gmin = 1.60377e-007
vernier = 0.00059197
vernier = 0.000789293
vernier = 0.00059197
Gmin = 1.60243e-007
vernier = 0.000789293
vernier = 0.00059197
Gmin = 1.60053e-007
vernier = 0.000789293
vernier = 0.00059197
vernier = 0.000789293
vernier = 0.000591969
Gmin = 1.59911e-007
vernier = 0.000789292
vernier = 0.000591969
Gmin = 1.59722e-007
vernier = 0.000789292
vernier = 0.000591969
vernier = 0.000789292
vernier = 0.000591969
Gmin = 1.5958e-007
vernier = 0.000789292
vernier = 0.000591969
Gmin = 1.59391e-007
vernier = 0.000789292
vernier = 0.000591969
vernier = 0.000789291
Gmin = 1.59195e-007
vernier = 0.000591969
vernier = 0.000789291
vernier = 0.000591968
Gmin = 1.59062e-007
vernier = 0.000789291
vernier = 0.000591968
Gmin = 1.58873e-007
vernier = 0.000789291
vernier = 0.000591968
vernier = 0.000789291
vernier = 0.000591968
Gmin = 1.58732e-007
vernier = 0.00078929
vernier = 0.000591968
Gmin = 1.58545e-007
vernier = 0.00078929
vernier = 0.000591968
vernier = 0.00078929
vernier = 0.000591968
Gmin = 1.58404e-007
vernier = 0.00078929
vernier = 0.000591967
Gmin = 1.58216e-007
vernier = 0.00078929
vernier = 0.000591967
vernier = 0.000789289
Gmin = 1.58021e-007
vernier = 0.000591967
vernier = 0.000789289
vernier = 0.000591967
Gmin = 1.57889e-007
vernier = 0.000789289
vernier = 0.000591967
Gmin = 1.57702e-007
vernier = 0.000789289
vernier = 0.000591967
vernier = 0.000789289
vernier = 0.000591966
Gmin = 1.57562e-007
vernier = 0.000789288
vernier = 0.000591966
Gmin = 1.57376e-007
vernier = 0.000789288
vernier = 0.000591966
vernier = 0.000789288
vernier = 0.000591966
Gmin = 1.57236e-007
vernier = 0.000789288
vernier = 0.000591966
Gmin = 1.5705e-007
vernier = 0.000789288
vernier = 0.000591966
vernier = 0.000789287
Gmin = 1.56857e-007
vernier = 0.000591966
vernier = 0.000789287
vernier = 0.000591965
Gmin = 1.56725e-007
vernier = 0.000789287
vernier = 0.000591965
Gmin = 1.5654e-007
vernier = 0.000789287
vernier = 0.000591965
vernier = 0.000789287
vernier = 0.000591965
Gmin = 1.56401e-007
vernier = 0.000789286
vernier = 0.000591965
Gmin = 1.56216e-007
vernier = 0.000789286
vernier = 0.000591965
vernier = 0.000789286
vernier = 0.000591965
Gmin = 1.56077e-007
vernier = 0.000789286
vernier = 0.000591964
Gmin = 1.55892e-007
vernier = 0.000789286
vernier = 0.000591964
vernier = 0.000789285
Gmin = 1.557e-007
vernier = 0.000591964
vernier = 0.000789285
vernier = 0.000591964
Gmin = 1.5557e-007
vernier = 0.000789285
vernier = 0.000591964
Gmin = 1.55386e-007
vernier = 0.000789285
vernier = 0.000591964
vernier = 0.000789285
vernier = 0.000591964
Gmin = 1.55248e-007
vernier = 0.000789284
vernier = 0.000591963
Gmin = 1.55064e-007
vernier = 0.000789284
vernier = 0.000591963
vernier = 0.000789284
vernier = 0.000591963
Gmin = 1.54926e-007
vernier = 0.000789284
vernier = 0.000591963
Gmin = 1.54743e-007
vernier = 0.000789284
vernier = 0.000591963
vernier = 0.000789284
Gmin = 1.54552e-007
vernier = 0.000591963
vernier = 0.000789283
vernier = 0.000591962
Gmin = 1.54423e-007
vernier = 0.000789283
vernier = 0.000591962
Gmin = 1.5424e-007
vernier = 0.000789283
vernier = 0.000591962
vernier = 0.000789283
vernier = 0.000591962
Gmin = 1.54103e-007
vernier = 0.000789283
vernier = 0.000591962
Gmin = 1.53921e-007
vernier = 0.000789282
vernier = 0.000591962
vernier = 0.000789282
vernier = 0.000591962
Gmin = 1.53784e-007
vernier = 0.000789282
vernier = 0.000591961
Gmin = 1.53602e-007
vernier = 0.000789282
vernier = 0.000591961
vernier = 0.000789282
Gmin = 1.53413e-007
vernier = 0.000591961
vernier = 0.000789281
vernier = 0.000591961
Gmin = 1.53285e-007
vernier = 0.000789281
vernier = 0.000591961
Gmin = 1.53103e-007
vernier = 0.000789281
vernier = 0.000591961
vernier = 0.000789281
vernier = 0.000591961
Gmin = 1.52967e-007
vernier = 0.000789281
vernier = 0.00059196
Gmin = 1.52786e-007
vernier = 0.00078928
vernier = 0.00059196
vernier = 0.00078928
vernier = 0.00059196
Gmin = 1.52651e-007
vernier = 0.00078928
vernier = 0.00059196
Gmin = 1.5247e-007
vernier = 0.00078928
vernier = 0.00059196
vernier = 0.00078928
Gmin = 1.52282e-007
vernier = 0.00059196
vernier = 0.000789279
vernier = 0.00059196
Gmin = 1.52155e-007
vernier = 0.000789279
vernier = 0.000591959
Gmin = 1.51975e-007
vernier = 0.000789279
vernier = 0.000591959
vernier = 0.000789279
vernier = 0.000591959
Gmin = 1.5184e-007
vernier = 0.000789279
vernier = 0.000591959
Gmin = 1.5166e-007
vernier = 0.000789278
vernier = 0.000591959
vernier = 0.000789278
vernier = 0.000591959
Gmin = 1.51525e-007
vernier = 0.000789278
vernier = 0.000591958
Gmin = 1.51346e-007
vernier = 0.000789278
vernier = 0.000591958
vernier = 0.000789278
Gmin = 1.5116e-007
vernier = 0.000591958
vernier = 0.000789277
vernier = 0.000591958
Gmin = 1.51033e-007
vernier = 0.000789277
vernier = 0.000591958
Gmin = 1.50854e-007
vernier = 0.000789277
vernier = 0.000591958
vernier = 0.000789277
vernier = 0.000591958
Gmin = 1.5072e-007
vernier = 0.000789277
vernier = 0.000591957
Gmin = 1.50542e-007
vernier = 0.000789276
vernier = 0.000591957
vernier = 0.000789276
vernier = 0.000591957
Gmin = 1.50408e-007
vernier = 0.000789276
vernier = 0.000591957
Gmin = 1.50231e-007
vernier = 0.000789276
vernier = 0.000591957
vernier = 0.000789276
Gmin = 1.50045e-007
vernier = 0.000591957
vernier = 0.000789275
vernier = 0.000591957
Gmin = 1.4992e-007
vernier = 0.000789275
vernier = 0.000591956
Gmin = 1.49742e-007
vernier = 0.000789275
vernier = 0.000591956
vernier = 0.000789275
vernier = 0.000591956
Gmin = 1.49609e-007
vernier = 0.000789275
vernier = 0.000591956
Gmin = 1.49432e-007
vernier = 0.000789274
vernier = 0.000591956
vernier = 0.000789274
vernier = 0.000591956
Gmin = 1.493e-007
vernier = 0.000789274
vernier = 0.000591956
Gmin = 1.49123e-007
vernier = 0.000789274
vernier = 0.000591955
vernier = 0.000789274
Gmin = 1.48939e-007
vernier = 0.000591955
vernier = 0.000789273
vernier = 0.000591955
Gmin = 1.48814e-007
vernier = 0.000789273
vernier = 0.000591955
Gmin = 1.48638e-007
vernier = 0.000789273
vernier = 0.000591955
vernier = 0.000789273
vernier = 0.000591955
Gmin = 1.48506e-007
vernier = 0.000789273
vernier = 0.000591954
Gmin = 1.48331e-007
vernier = 0.000789272
vernier = 0.000591954
vernier = 0.000789272
vernier = 0.000591954
Gmin = 1.48199e-007
vernier = 0.000789272
vernier = 0.000591954
Gmin = 1.48024e-007
vernier = 0.000789272
vernier = 0.000591954
vernier = 0.000789272
Gmin = 1.47841e-007
vernier = 0.000591954
vernier = 0.000789271
vernier = 0.000591954
Gmin = 1.47717e-007
vernier = 0.000789271
vernier = 0.000591953
Gmin = 1.47543e-007
vernier = 0.000789271
vernier = 0.000591953
vernier = 0.000789271
vernier = 0.000591953
Gmin = 1.47412e-007
vernier = 0.000789271
vernier = 0.000591953
Gmin = 1.47237e-007
vernier = 0.00078927
vernier = 0.000591953
vernier = 0.00078927
vernier = 0.000591953
Gmin = 1.47107e-007
vernier = 0.00078927
vernier = 0.000591953
Gmin = 1.46933e-007
vernier = 0.00078927
vernier = 0.000591952
vernier = 0.00078927
Gmin = 1.46752e-007
vernier = 0.000591952
vernier = 0.000789269
vernier = 0.000591952
Gmin = 1.46629e-007
vernier = 0.000789269
vernier = 0.000591952
Gmin = 1.46455e-007
vernier = 0.000789269
vernier = 0.000591952
vernier = 0.000789269
vernier = 0.000591952
Gmin = 1.46325e-007
vernier = 0.000789269
vernier = 0.000591952
Gmin = 1.46152e-007
vernier = 0.000789269
vernier = 0.000591951
vernier = 0.000789268
vernier = 0.000591951
Gmin = 1.46022e-007
vernier = 0.000789268
vernier = 0.000591951
Gmin = 1.4585e-007
vernier = 0.000789268
vernier = 0.000591951
vernier = 0.000789268
Gmin = 1.4567e-007
vernier = 0.000591951
vernier = 0.000789268
vernier = 0.000591951
Gmin = 1.45548e-007
vernier = 0.000789267
vernier = 0.00059195
Gmin = 1.45375e-007
vernier = 0.000789267
vernier = 0.00059195
vernier = 0.000789267
vernier = 0.00059195
Gmin = 1.45246e-007
vernier = 0.000789267
vernier = 0.00059195
Gmin = 1.45075e-007
vernier = 0.000789267
vernier = 0.00059195
vernier = 0.000789266
vernier = 0.00059195
Gmin = 1.44946e-007
vernier = 0.000789266
vernier = 0.00059195
Gmin = 1.44774e-007
vernier = 0.000789266
vernier = 0.000591949
vernier = 0.000789266
Gmin = 1.44596e-007
vernier = 0.000591949
vernier = 0.000789266
vernier = 0.000591949
Gmin = 1.44475e-007
vernier = 0.000789265
vernier = 0.000591949
Gmin = 1.44304e-007
vernier = 0.000789265
vernier = 0.000591949
vernier = 0.000789265
vernier = 0.000591949
Gmin = 1.44176e-007
vernier = 0.000789265
vernier = 0.000591949
Gmin = 1.44005e-007
vernier = 0.000789265
vernier = 0.000591948
vernier = 0.000789264
vernier = 0.000591948
Gmin = 1.43877e-007
vernier = 0.000789264
vernier = 0.000591948
Gmin = 1.43707e-007
vernier = 0.000789264
vernier = 0.000591948
vernier = 0.000789264
Gmin = 1.4353e-007
vernier = 0.000591948
vernier = 0.000789264
vernier = 0.000591948
Gmin = 1.4341e-007
vernier = 0.000789263
vernier = 0.000591948
Gmin = 1.4324e-007
vernier = 0.000789263
vernier = 0.000591947
vernier = 0.000789263
vernier = 0.000591947
Gmin = 1.43113e-007
vernier = 0.000789263
vernier = 0.000591947
Gmin = 1.42944e-007
vernier = 0.000789263
vernier = 0.000591947
vernier = 0.000789262
vernier = 0.000591947
Gmin = 1.42817e-007
vernier = 0.000789262
vernier = 0.000591947
Gmin = 1.42648e-007
vernier = 0.000789262
vernier = 0.000591946
vernier = 0.000789262
Gmin = 1.42472e-007
vernier = 0.000591946
vernier = 0.000789262
vernier = 0.000591946
Gmin = 1.42353e-007
vernier = 0.000789261
vernier = 0.000591946
Gmin = 1.42184e-007
vernier = 0.000789261
vernier = 0.000591946
vernier = 0.000789261
vernier = 0.000591946
Gmin = 1.42058e-007
vernier = 0.000789261
vernier = 0.000591946
Gmin = 1.4189e-007
vernier = 0.000789261
vernier = 0.000591945
vernier = 0.00078926
vernier = 0.000591945
Gmin = 1.41764e-007
vernier = 0.00078926
vernier = 0.000591945
Gmin = 1.41596e-007
vernier = 0.00078926
vernier = 0.000591945
vernier = 0.00078926
Gmin = 1.41422e-007
vernier = 0.000591945
vernier = 0.00078926
vernier = 0.000591945
Gmin = 1.41303e-007
vernier = 0.000789259
vernier = 0.000591945
Gmin = 1.41136e-007
vernier = 0.000789259
vernier = 0.000591944
vernier = 0.000789259
vernier = 0.000591944
Gmin = 1.41011e-007
vernier = 0.000789259
vernier = 0.000591944
vernier = 0.000443958
Gmin = 1.40881e-007
vernier = 0.000591944
vernier = 0.000789258
vernier = 0.000591944
Gmin = 1.40724e-007
vernier = 0.000443958
vernier = 0.000591944
Gmin = 1.40563e-007
vernier = 0.000789258
vernier = 0.000591944
vernier = 0.000443958
Gmin = 1.40443e-007
vernier = 0.000591943
vernier = 0.000789258
vernier = 0.000591943
vernier = 0.000443957
Gmin = 1.40303e-007
vernier = 0.000591943
Gmin = 1.40116e-007
vernier = 0.000789257
vernier = 0.000591943
vernier = 0.000443957
vernier = 0.000591943
Gmin = 1.39997e-007
vernier = 0.000789257
vernier = 0.000591943
vernier = 0.000443957
Gmin = 1.39868e-007
vernier = 0.000591943
vernier = 0.000789256
vernier = 0.000591942
Gmin = 1.39713e-007
vernier = 0.000443957
vernier = 0.000591942
Gmin = 1.39553e-007
vernier = 0.000789256
vernier = 0.000591942
vernier = 0.000443957
Gmin = 1.39434e-007
vernier = 0.000591942
vernier = 0.000789256
vernier = 0.000591942
vernier = 0.000443956
Gmin = 1.39295e-007
vernier = 0.000591942
Gmin = 1.39109e-007
vernier = 0.000789255
vernier = 0.000591941
vernier = 0.000443956
vernier = 0.000591941
Gmin = 1.38991e-007
vernier = 0.000789255
vernier = 0.000591941
vernier = 0.000443956
Gmin = 1.38863e-007
vernier = 0.000591941
vernier = 0.000789254
vernier = 0.000591941
Gmin = 1.38709e-007
vernier = 0.000443956
vernier = 0.000591941
Gmin = 1.3855e-007
vernier = 0.000789254
vernier = 0.000591941
vernier = 0.000443955
Gmin = 1.38432e-007
vernier = 0.00059194
vernier = 0.000789254
vernier = 0.00059194
vernier = 0.000443955
Gmin = 1.38293e-007
vernier = 0.00059194
Gmin = 1.38109e-007
vernier = 0.000789253
vernier = 0.00059194
vernier = 0.000443955
vernier = 0.00059194
Gmin = 1.37992e-007
vernier = 0.000789253
vernier = 0.00059194
vernier = 0.000443955
Gmin = 1.37864e-007
vernier = 0.00059194
vernier = 0.000789253
vernier = 0.000591939
Gmin = 1.37711e-007
vernier = 0.000443955
vernier = 0.000591939
Gmin = 1.37554e-007
vernier = 0.000789252
vernier = 0.000591939
vernier = 0.000443954
Gmin = 1.37437e-007
vernier = 0.000591939
vernier = 0.000789252
vernier = 0.000591939
vernier = 0.000443954
Gmin = 1.37299e-007
vernier = 0.000591939
Gmin = 1.37117e-007
vernier = 0.000789251
vernier = 0.000591939
vernier = 0.000443954
vernier = 0.000591938
Gmin = 1.37e-007
vernier = 0.000789251
vernier = 0.000591938
vernier = 0.000443954
Gmin = 1.36873e-007
vernier = 0.000591938
vernier = 0.000789251
vernier = 0.000591938
Gmin = 1.36722e-007
vernier = 0.000443953
vernier = 0.000591938
Gmin = 1.36565e-007
vernier = 0.00078925
vernier = 0.000591938
vernier = 0.000443953
Gmin = 1.36449e-007
vernier = 0.000591937
vernier = 0.00078925
vernier = 0.000591937
vernier = 0.000443953
Gmin = 1.36313e-007
vernier = 0.000591937
Gmin = 1.36131e-007
vernier = 0.000789249
vernier = 0.000591937
vernier = 0.000443953
vernier = 0.000591937
Gmin = 1.36015e-007
vernier = 0.000789249
vernier = 0.000591937
vernier = 0.000443953
Gmin = 1.3589e-007
vernier = 0.000591937
vernier = 0.000789249
vernier = 0.000591936
Gmin = 1.35739e-007
vernier = 0.000443952
vernier = 0.000591936
Gmin = 1.35583e-007
vernier = 0.000789248
vernier = 0.000591936
vernier = 0.000443952
Gmin = 1.35468e-007
vernier = 0.000591936
vernier = 0.000789248
vernier = 0.000591936
vernier = 0.000443952
Gmin = 1.35333e-007
vernier = 0.000591936
Gmin = 1.35153e-007
vernier = 0.000789247
vernier = 0.000591936
vernier = 0.000443952
vernier = 0.000591935
Gmin = 1.35038e-007
vernier = 0.000789247
vernier = 0.000591935
vernier = 0.000443951
Gmin = 1.34913e-007
vernier = 0.000591935
vernier = 0.000789247
vernier = 0.000591935
Gmin = 1.34763e-007
vernier = 0.000443951
vernier = 0.000591935
Gmin = 1.34609e-007
vernier = 0.000789246
vernier = 0.000591935
vernier = 0.000443951
Gmin = 1.34494e-007
vernier = 0.000591935
vernier = 0.000789246
vernier = 0.000591934
vernier = 0.000443951
Gmin = 1.3436e-007
vernier = 0.000591934
Gmin = 1.34181e-007
vernier = 0.000789245
vernier = 0.000591934
vernier = 0.000443951
vernier = 0.000591934
Gmin = 1.34067e-007
vernier = 0.000789245
vernier = 0.000591934
vernier = 0.00044395
Gmin = 1.33943e-007
vernier = 0.000591934
vernier = 0.000789245
vernier = 0.000591933
Gmin = 1.33795e-007
vernier = 0.00044395
vernier = 0.000591933
Gmin = 1.33641e-007
vernier = 0.000789244
vernier = 0.000591933
vernier = 0.00044395
Gmin = 1.33528e-007
vernier = 0.000591933
vernier = 0.000789244
vernier = 0.000591933
vernier = 0.00044395
Gmin = 1.33394e-007
vernier = 0.000591933
Gmin = 1.33217e-007
vernier = 0.000789243
vernier = 0.000591933
vernier = 0.000443949
vernier = 0.000591932
Gmin = 1.33103e-007
vernier = 0.000789243
vernier = 0.000591932
vernier = 0.000443949
Gmin = 1.3298e-007
vernier = 0.000591932
vernier = 0.000789243
vernier = 0.000591932
Gmin = 1.32833e-007
vernier = 0.000443949
vernier = 0.000591932
Gmin = 1.32681e-007
vernier = 0.000789242
vernier = 0.000591932
vernier = 0.000443949
Gmin = 1.32568e-007
vernier = 0.000591932
vernier = 0.000789242
vernier = 0.000591931
vernier = 0.000443949
Gmin = 1.32435e-007
vernier = 0.000591931
Gmin = 1.32259e-007
vernier = 0.000789241
vernier = 0.000591931
vernier = 0.000443948
vernier = 0.000591931
Gmin = 1.32147e-007
vernier = 0.000789241
vernier = 0.000591931
vernier = 0.000443948
Gmin = 1.32025e-007
vernier = 0.000591931
vernier = 0.000789241
vernier = 0.000591931
Gmin = 1.31878e-007
vernier = 0.000443948
vernier = 0.00059193
Gmin = 1.31727e-007
vernier = 0.00078924
vernier = 0.00059193
vernier = 0.000443948
Gmin = 1.31615e-007
vernier = 0.00059193
vernier = 0.00078924
vernier = 0.00059193
vernier = 0.000443947
Gmin = 1.31484e-007
vernier = 0.00059193
Gmin = 1.31309e-007
vernier = 0.00078924
vernier = 0.00059193
vernier = 0.000443947
vernier = 0.000591929
Gmin = 1.31197e-007
vernier = 0.000789239
vernier = 0.000591929
vernier = 0.000443947
Gmin = 1.31076e-007
vernier = 0.000591929
vernier = 0.000789239
vernier = 0.000591929
Gmin = 1.3093e-007
vernier = 0.000443947
vernier = 0.000591929
Gmin = 1.3078e-007
vernier = 0.000789238
vernier = 0.000591929
vernier = 0.000443947
Gmin = 1.30669e-007
vernier = 0.000591929
vernier = 0.000789238
vernier = 0.000591928
vernier = 0.000443946
Gmin = 1.30539e-007
vernier = 0.000591928
Gmin = 1.30365e-007
vernier = 0.000789238
vernier = 0.000591928
vernier = 0.000443946
vernier = 0.000591928
Gmin = 1.30254e-007
vernier = 0.000789237
vernier = 0.000591928
vernier = 0.000443946
Gmin = 1.30134e-007
vernier = 0.000591928
vernier = 0.000789237
vernier = 0.000591928
Gmin = 1.29989e-007
vernier = 0.000443946
vernier = 0.000591927
Gmin = 1.2984e-007
vernier = 0.000789236
vernier = 0.000591927
vernier = 0.000443945
Gmin = 1.2973e-007
vernier = 0.000591927
vernier = 0.000789236
vernier = 0.000591927
vernier = 0.000443945
Gmin = 1.296e-007
vernier = 0.000591927
Gmin = 1.29428e-007
vernier = 0.000789236
vernier = 0.000591927
vernier = 0.000443945
vernier = 0.000591927
Gmin = 1.29318e-007
vernier = 0.000789235
vernier = 0.000591926
vernier = 0.000443945
Gmin = 1.29198e-007
vernier = 0.000591926
vernier = 0.000789235
vernier = 0.000591926
Gmin = 1.29055e-007
vernier = 0.000443945
vernier = 0.000591926
Gmin = 1.28907e-007
vernier = 0.000789234
vernier = 0.000591926
vernier = 0.000443944
Gmin = 1.28797e-007
vernier = 0.000591926
vernier = 0.000789234
vernier = 0.000591925
vernier = 0.000443944
Gmin = 1.28669e-007
vernier = 0.000591925
Gmin = 1.28497e-007
vernier = 0.000789234
vernier = 0.000591925
vernier = 0.000443944
vernier = 0.000591925
Gmin = 1.28388e-007
vernier = 0.000789233
vernier = 0.000591925
vernier = 0.000443944
Gmin = 1.2827e-007
vernier = 0.000591925
vernier = 0.000789233
vernier = 0.000591925
Gmin = 1.28127e-007
vernier = 0.000443943
vernier = 0.000591924
Gmin = 1.2798e-007
vernier = 0.000789232
vernier = 0.000591924
vernier = 0.000443943
Gmin = 1.27872e-007
vernier = 0.000591924
vernier = 0.000789232
vernier = 0.000591924
vernier = 0.000443943
Gmin = 1.27744e-007
vernier = 0.000591924
Gmin = 1.27574e-007
vernier = 0.000789232
vernier = 0.000591924
vernier = 0.000443943
vernier = 0.000591924
Gmin = 1.27465e-007
vernier = 0.000789231
vernier = 0.000591923
vernier = 0.000443943
Gmin = 1.27348e-007
vernier = 0.000591923
vernier = 0.000789231
vernier = 0.000591923
Gmin = 1.27206e-007
vernier = 0.000443942
vernier = 0.000591923
Gmin = 1.27061e-007
vernier = 0.00078923
vernier = 0.000591923
vernier = 0.000443942
Gmin = 1.26952e-007
vernier = 0.000591923
vernier = 0.00078923
vernier = 0.000591923
vernier = 0.000443942
Gmin = 1.26826e-007
vernier = 0.000591922
Gmin = 1.26657e-007
vernier = 0.00078923
vernier = 0.000591922
vernier = 0.000443942
vernier = 0.000591922
Gmin = 1.26549e-007
vernier = 0.000789229
vernier = 0.000591922
vernier = 0.000443941
Gmin = 1.26432e-007
vernier = 0.000591922
vernier = 0.000789229
vernier = 0.000591922
Gmin = 1.26292e-007
vernier = 0.000443941
vernier = 0.000591921
Gmin = 1.26147e-007
vernier = 0.000789228
vernier = 0.000591921
vernier = 0.000443941
Gmin = 1.2604e-007
vernier = 0.000591921
vernier = 0.000789228
vernier = 0.000591921
vernier = 0.000443941
Gmin = 1.25914e-007
vernier = 0.000591921
Gmin = 1.25747e-007
vernier = 0.000789228
vernier = 0.000591921
vernier = 0.000443941
vernier = 0.000591921
Gmin = 1.2564e-007
vernier = 0.000789227
vernier = 0.00059192
vernier = 0.00044394
Gmin = 1.25524e-007
vernier = 0.00059192
vernier = 0.000789227
vernier = 0.00059192
Gmin = 1.25384e-007
vernier = 0.00044394
vernier = 0.00059192
Gmin = 1.25241e-007
vernier = 0.000789226
vernier = 0.00059192
vernier = 0.00044394
Gmin = 1.25134e-007
vernier = 0.00059192
vernier = 0.000789226
vernier = 0.00059192
vernier = 0.00044394
Gmin = 1.25009e-007
vernier = 0.000591919
Gmin = 1.24843e-007
vernier = 0.000789226
vernier = 0.000591919
vernier = 0.000443939
vernier = 0.000591919
Gmin = 1.24737e-007
vernier = 0.000789225
vernier = 0.000591919
vernier = 0.000443939
Gmin = 1.24621e-007
vernier = 0.000591919
vernier = 0.000789225
vernier = 0.000591919
Gmin = 1.24483e-007
vernier = 0.000443939
vernier = 0.000591919
Gmin = 1.2434e-007
vernier = 0.000789225
vernier = 0.000591918
vernier = 0.000443939
Gmin = 1.24235e-007
vernier = 0.000591918
vernier = 0.000789224
vernier = 0.000591918
vernier = 0.000443939
Gmin = 1.24111e-007
vernier = 0.000591918
Gmin = 1.23945e-007
vernier = 0.000789224
vernier = 0.000591918
vernier = 0.000443938
vernier = 0.000591918
Gmin = 1.2384e-007
vernier = 0.000789223
vernier = 0.000591917
vernier = 0.000443938
Gmin = 1.23726e-007
vernier = 0.000591917
vernier = 0.000789223
vernier = 0.000591917
Gmin = 1.23588e-007
vernier = 0.000443938
vernier = 0.000591917
Gmin = 1.23447e-007
vernier = 0.000789223
vernier = 0.000591917
vernier = 0.000443938
Gmin = 1.23342e-007
vernier = 0.000591917
vernier = 0.000789222
vernier = 0.000591917
vernier = 0.000443937
Gmin = 1.23219e-007
vernier = 0.000591916
Gmin = 1.23055e-007
vernier = 0.000789222
vernier = 0.000591916
vernier = 0.000443937
vernier = 0.000591916
Gmin = 1.2295e-007
vernier = 0.000789221
vernier = 0.000591916
vernier = 0.000443937
Gmin = 1.22836e-007
vernier = 0.000591916
vernier = 0.000789221
vernier = 0.000591916
Gmin = 1.227e-007
vernier = 0.000443937
vernier = 0.000591916
Gmin = 1.22559e-007
vernier = 0.000789221
vernier = 0.000591915
vernier = 0.000443937
Gmin = 1.22455e-007
vernier = 0.000591915
vernier = 0.00078922
vernier = 0.000591915
vernier = 0.000443936
Gmin = 1.22333e-007
vernier = 0.000591915
Gmin = 1.2217e-007
vernier = 0.00078922
vernier = 0.000591915
vernier = 0.000443936
vernier = 0.000591915
Gmin = 1.22066e-007
vernier = 0.000789219
vernier = 0.000591915
vernier = 0.000443936
Gmin = 1.21953e-007
vernier = 0.000591914
vernier = 0.000789219
vernier = 0.000591914
Gmin = 1.21818e-007
vernier = 0.000443936
vernier = 0.000591914
Gmin = 1.21679e-007
vernier = 0.000789219
vernier = 0.000591914
vernier = 0.000443935
Gmin = 1.21575e-007
vernier = 0.000591914
vernier = 0.000789218
vernier = 0.000591914
vernier = 0.000443935
Gmin = 1.21454e-007
vernier = 0.000591913
Gmin = 1.21292e-007
vernier = 0.000789218
vernier = 0.000591913
vernier = 0.000443935
vernier = 0.000591913
Gmin = 1.21189e-007
vernier = 0.000789217
vernier = 0.000591913
vernier = 0.000443935
Gmin = 1.21077e-007
vernier = 0.000591913
vernier = 0.000789217
vernier = 0.000591913
Gmin = 1.20943e-007
vernier = 0.000443935
vernier = 0.000591913
Gmin = 1.20804e-007
vernier = 0.000789217
vernier = 0.000591912
vernier = 0.000443934
Gmin = 1.20701e-007
vernier = 0.000591912
vernier = 0.000789216
vernier = 0.000591912
vernier = 0.000443934
Gmin = 1.20581e-007
vernier = 0.000591912
Gmin = 1.2042e-007
vernier = 0.000789216
vernier = 0.000591912
vernier = 0.000443934
vernier = 0.000591912
Gmin = 1.20318e-007
vernier = 0.000789215
vernier = 0.000591912
vernier = 0.000443934
Gmin = 1.20207e-007
vernier = 0.000591911
vernier = 0.000789215
vernier = 0.000591911
Gmin = 1.20073e-007
vernier = 0.000443933
vernier = 0.000591911
Gmin = 1.19936e-007
vernier = 0.000789215
vernier = 0.000591911
vernier = 0.000443933
Gmin = 1.19834e-007
vernier = 0.000591911
vernier = 0.000789214
vernier = 0.000591911
vernier = 0.000443933
Gmin = 1.19714e-007
vernier = 0.000591911
vernier = 0.000443933
Gmin = 1.19608e-007
vernier = 0.00059191
vernier = 0.000443933
vernier = 0.00059191
vernier = 0.000443933
Gmin = 1.19528e-007
vernier = 0.00059191
vernier = 0.000443933
Gmin = 1.19422e-007
vernier = 0.00059191
vernier = 0.000443932
vernier = 0.00059191
Gmin = 1.19312e-007
vernier = 0.000443932
vernier = 0.00059191
vernier = 0.000443932
Gmin = 1.19237e-007
vernier = 0.00059191
vernier = 0.000443932
Gmin = 1.19131e-007
vernier = 0.000591909
vernier = 0.000443932
vernier = 0.000591909
vernier = 0.000443932
Gmin = 1.19052e-007
vernier = 0.000591909
vernier = 0.000443932
Gmin = 1.18946e-007
vernier = 0.000591909
vernier = 0.000443932
vernier = 0.000591909
vernier = 0.000443932
Gmin = 1.18867e-007
vernier = 0.000591909
vernier = 0.000443931
Gmin = 1.18761e-007
vernier = 0.000591908
vernier = 0.000443931
vernier = 0.000591908
Gmin = 1.18652e-007
vernier = 0.000443931
vernier = 0.000591908
vernier = 0.000443931
Gmin = 1.18577e-007
vernier = 0.000591908
vernier = 0.000443931
Gmin = 1.18472e-007
vernier = 0.000591908
vernier = 0.000443931
vernier = 0.000591908
vernier = 0.000443931
Gmin = 1.18393e-007
vernier = 0.000591908
vernier = 0.000443931
Gmin = 1.18288e-007
vernier = 0.000591907
vernier = 0.000443931
vernier = 0.000591907
vernier = 0.00044393
Gmin = 1.18209e-007
vernier = 0.000591907
vernier = 0.00044393
Gmin = 1.18104e-007
vernier = 0.000591907
vernier = 0.00044393
vernier = 0.000591907
Gmin = 1.17995e-007
vernier = 0.00044393
vernier = 0.000591907
vernier = 0.00044393
Gmin = 1.17921e-007
vernier = 0.000591907
vernier = 0.00044393
Gmin = 1.17816e-007
vernier = 0.000591906
vernier = 0.00044393
vernier = 0.000591906
vernier = 0.00044393
Gmin = 1.17738e-007
vernier = 0.000591906
vernier = 0.00044393
Gmin = 1.17633e-007
vernier = 0.000591906
vernier = 0.000443929
vernier = 0.000591906
vernier = 0.000443929
Gmin = 1.17555e-007
vernier = 0.000591906
vernier = 0.000443929
Gmin = 1.17451e-007
vernier = 0.000591906
vernier = 0.000443929
vernier = 0.000591905
Gmin = 1.17342e-007
vernier = 0.000443929
vernier = 0.000591905
vernier = 0.000443929
Gmin = 1.17268e-007
vernier = 0.000591905
vernier = 0.000443929
Gmin = 1.17164e-007
vernier = 0.000591905
vernier = 0.000443929
vernier = 0.000591905
vernier = 0.000443929
Gmin = 1.17086e-007
vernier = 0.000591905
vernier = 0.000443928
Gmin = 1.16982e-007
vernier = 0.000591904
vernier = 0.000443928
vernier = 0.000591904
vernier = 0.000443928
Gmin = 1.16904e-007
vernier = 0.000591904
vernier = 0.000443928
Gmin = 1.16801e-007
vernier = 0.000591904
vernier = 0.000443928
vernier = 0.000591904
Gmin = 1.16693e-007
vernier = 0.000443928
vernier = 0.000591904
vernier = 0.000443928
Gmin = 1.16619e-007
vernier = 0.000591904
vernier = 0.000443928
Gmin = 1.16516e-007
vernier = 0.000591903
vernier = 0.000443928
vernier = 0.000591903
vernier = 0.000443927
Gmin = 1.16438e-007
vernier = 0.000591903
vernier = 0.000443927
Gmin = 1.16335e-007
vernier = 0.000591903
vernier = 0.000443927
vernier = 0.000591903
vernier = 0.000443927
Gmin = 1.16258e-007
vernier = 0.000591903
vernier = 0.000443927
Gmin = 1.16154e-007
vernier = 0.000591903
vernier = 0.000443927
vernier = 0.000591902
Gmin = 1.16047e-007
vernier = 0.000443927
vernier = 0.000591902
vernier = 0.000443927
Gmin = 1.15974e-007
vernier = 0.000591902
vernier = 0.000443927
Gmin = 1.15871e-007
vernier = 0.000591902
vernier = 0.000443926
vernier = 0.000591902
vernier = 0.000443926
Gmin = 1.15794e-007
vernier = 0.000591902
vernier = 0.000443926
Gmin = 1.15691e-007
vernier = 0.000591902
vernier = 0.000443926
vernier = 0.000591901
vernier = 0.000443926
Gmin = 1.15614e-007
vernier = 0.000591901
vernier = 0.000443926
Gmin = 1.15512e-007
vernier = 0.000591901
vernier = 0.000443926
vernier = 0.000591901
Gmin = 1.15405e-007
vernier = 0.000443926
vernier = 0.000591901
vernier = 0.000443926
Gmin = 1.15332e-007
vernier = 0.000591901
vernier = 0.000443925
Gmin = 1.1523e-007
vernier = 0.0005919
vernier = 0.000443925
vernier = 0.0005919
vernier = 0.000443925
Gmin = 1.15153e-007
vernier = 0.0005919
vernier = 0.000443925
Gmin = 1.15051e-007
vernier = 0.0005919
vernier = 0.000443925
vernier = 0.0005919
vernier = 0.000443925
Gmin = 1.14975e-007
vernier = 0.0005919
vernier = 0.000443925
Gmin = 1.14873e-007
vernier = 0.0005919
vernier = 0.000443925
vernier = 0.000591899
Gmin = 1.14766e-007
vernier = 0.000443925
vernier = 0.000591899
vernier = 0.000443924
Gmin = 1.14694e-007
vernier = 0.000591899
vernier = 0.000443924
Gmin = 1.14592e-007
vernier = 0.000591899
vernier = 0.000443924
vernier = 0.000591899
vernier = 0.000443924
Gmin = 1.14516e-007
vernier = 0.000591899
vernier = 0.000443924
Gmin = 1.14414e-007
vernier = 0.000591899
vernier = 0.000443924
vernier = 0.000591898
vernier = 0.000443924
Gmin = 1.14338e-007
vernier = 0.000591898
vernier = 0.000443924
Gmin = 1.14237e-007
vernier = 0.000591898
vernier = 0.000443924
vernier = 0.000591898
Gmin = 1.14131e-007
vernier = 0.000443923
vernier = 0.000591898
vernier = 0.000443923
Gmin = 1.1406e-007
vernier = 0.000591898
vernier = 0.000443923
Gmin = 1.13958e-007
vernier = 0.000591898
vernier = 0.000443923
vernier = 0.000591897
vernier = 0.000443923
Gmin = 1.13882e-007
vernier = 0.000591897
vernier = 0.000443923
Gmin = 1.13781e-007
vernier = 0.000591897
vernier = 0.000443923
vernier = 0.000591897
vernier = 0.000443923
Gmin = 1.13706e-007
vernier = 0.000591897
vernier = 0.000443923
Gmin = 1.13605e-007
vernier = 0.000591897
vernier = 0.000443922
vernier = 0.000591896
Gmin = 1.135e-007
vernier = 0.000443922
vernier = 0.000591896
vernier = 0.000443922
Gmin = 1.13428e-007
vernier = 0.000591896
vernier = 0.000443922
Gmin = 1.13328e-007
vernier = 0.000591896
vernier = 0.000443922
vernier = 0.000591896
vernier = 0.000443922
Gmin = 1.13252e-007
vernier = 0.000591896
vernier = 0.000443922
Gmin = 1.13152e-007
vernier = 0.000591896
vernier = 0.000443922
vernier = 0.000591895
vernier = 0.000443922
Gmin = 1.13076e-007
vernier = 0.000591895
vernier = 0.000443921
Gmin = 1.12976e-007
vernier = 0.000591895
vernier = 0.000443921
vernier = 0.000591895
Gmin = 1.12872e-007
vernier = 0.000443921
vernier = 0.000591895
vernier = 0.000443921
Gmin = 1.12801e-007
vernier = 0.000591895
vernier = 0.000443921
Gmin = 1.12701e-007
vernier = 0.000591895
vernier = 0.000443921
vernier = 0.000591894
vernier = 0.000443921
Gmin = 1.12626e-007
vernier = 0.000591894
vernier = 0.000443921
Gmin = 1.12526e-007
vernier = 0.000591894
vernier = 0.000443921
vernier = 0.000591894
vernier = 0.00044392
Gmin = 1.12451e-007
vernier = 0.000591894
vernier = 0.00044392
Gmin = 1.12351e-007
vernier = 0.000591894
vernier = 0.00044392
vernier = 0.000591894
Gmin = 1.12247e-007
vernier = 0.00044392
vernier = 0.000591893
vernier = 0.00044392
Gmin = 1.12177e-007
vernier = 0.000591893
vernier = 0.00044392
Gmin = 1.12077e-007
vernier = 0.000591893
vernier = 0.00044392
vernier = 0.000591893
vernier = 0.00044392
Gmin = 1.12002e-007
vernier = 0.000591893
vernier = 0.00044392
Gmin = 1.11903e-007
vernier = 0.000591893
vernier = 0.000443919
vernier = 0.000591892
vernier = 0.000443919
Gmin = 1.11829e-007
vernier = 0.000591892
vernier = 0.000443919
Gmin = 1.11729e-007
vernier = 0.000591892
vernier = 0.000443919
vernier = 0.000591892
Gmin = 1.11626e-007
vernier = 0.000443919
vernier = 0.000591892
vernier = 0.000443919
Gmin = 1.11556e-007
vernier = 0.000591892
vernier = 0.000443919
Gmin = 1.11457e-007
vernier = 0.000591892
vernier = 0.000443919
vernier = 0.000591891
vernier = 0.000443919
Gmin = 1.11383e-007
vernier = 0.000591891
vernier = 0.000443918
Gmin = 1.11284e-007
vernier = 0.000591891
vernier = 0.000443918
vernier = 0.000591891
vernier = 0.000443918
Gmin = 1.1121e-007
vernier = 0.000591891
vernier = 0.000443918
Gmin = 1.11111e-007
vernier = 0.000591891
vernier = 0.000443918
vernier = 0.000591891
Gmin = 1.11008e-007
vernier = 0.000443918
vernier = 0.00059189
vernier = 0.000443918
Gmin = 1.10939e-007
vernier = 0.00059189
vernier = 0.000443918
Gmin = 1.1084e-007
vernier = 0.00059189
vernier = 0.000443918
vernier = 0.00059189
vernier = 0.000443917
Gmin = 1.10766e-007
vernier = 0.00059189
vernier = 0.000443917
Gmin = 1.10668e-007
vernier = 0.00059189
vernier = 0.000443917
vernier = 0.00059189
vernier = 0.000443917
Gmin = 1.10594e-007
vernier = 0.000591889
vernier = 0.000443917
Gmin = 1.10496e-007
vernier = 0.000591889
vernier = 0.000443917
vernier = 0.000591889
Gmin = 1.10394e-007
vernier = 0.000443917
vernier = 0.000591889
vernier = 0.000443917
Gmin = 1.10325e-007
vernier = 0.000591889
vernier = 0.000443917
Gmin = 1.10227e-007
vernier = 0.000591889
vernier = 0.000443916
vernier = 0.000591888
vernier = 0.000443916
Gmin = 1.10153e-007
vernier = 0.000591888
vernier = 0.000443916
Gmin = 1.10056e-007
vernier = 0.000591888
vernier = 0.000443916
vernier = 0.000591888
vernier = 0.000443916
Gmin = 1.09982e-007
vernier = 0.000591888
vernier = 0.000443916
Gmin = 1.09885e-007
vernier = 0.000591888
vernier = 0.000443916
vernier = 0.000591888
Gmin = 1.09783e-007
vernier = 0.000443916
vernier = 0.000591887
vernier = 0.000443916
Gmin = 1.09714e-007
vernier = 0.000591887
vernier = 0.000443915
Gmin = 1.09617e-007
vernier = 0.000591887
vernier = 0.000443915
vernier = 0.000591887
vernier = 0.000443915
Gmin = 1.09544e-007
vernier = 0.000591887
vernier = 0.000443915
Gmin = 1.09447e-007
vernier = 0.000591887
vernier = 0.000443915
vernier = 0.000591887
vernier = 0.000443915
Gmin = 1.09374e-007
vernier = 0.000591886
vernier = 0.000443915
Gmin = 1.09277e-007
vernier = 0.000591886
vernier = 0.000443915
vernier = 0.000591886
Gmin = 1.09176e-007
vernier = 0.000443915
vernier = 0.000591886
vernier = 0.000443914
Gmin = 1.09107e-007
vernier = 0.000591886
vernier = 0.000443914
Gmin = 1.0901e-007
vernier = 0.000591886
vernier = 0.000443914
vernier = 0.000591886
vernier = 0.000443914
Gmin = 1.08938e-007
vernier = 0.000591885
vernier = 0.000443914
Gmin = 1.08841e-007
vernier = 0.000591885
vernier = 0.000443914
vernier = 0.000591885
vernier = 0.000443914
Gmin = 1.08769e-007
vernier = 0.000591885
vernier = 0.000443914
Gmin = 1.08672e-007
vernier = 0.000591885
vernier = 0.000443914
vernier = 0.000591885
Gmin = 1.08572e-007
vernier = 0.000443913
vernier = 0.000591884
vernier = 0.000443913
Gmin = 1.08503e-007
vernier = 0.000591884
vernier = 0.000443913
Gmin = 1.08407e-007
vernier = 0.000591884
vernier = 0.000443913
vernier = 0.000591884
vernier = 0.000443913
Gmin = 1.08335e-007
vernier = 0.000591884
vernier = 0.000443913
Gmin = 1.08239e-007
vernier = 0.000591884
vernier = 0.000443913
vernier = 0.000591884
vernier = 0.000443913
Gmin = 1.08167e-007
vernier = 0.000591883
vernier = 0.000443913
Gmin = 1.08071e-007
vernier = 0.000591883
vernier = 0.000443912
vernier = 0.000591883
Gmin = 1.07971e-007
vernier = 0.000443912
vernier = 0.000591883
vernier = 0.000443912
Gmin = 1.07903e-007
vernier = 0.000591883
vernier = 0.000443912
Gmin = 1.07807e-007
vernier = 0.000591883
vernier = 0.000443912
vernier = 0.000591883
vernier = 0.000443912
Gmin = 1.07736e-007
vernier = 0.000591882
vernier = 0.000443912
Gmin = 1.0764e-007
vernier = 0.000591882
vernier = 0.000443912
vernier = 0.000591882
vernier = 0.000443912
Gmin = 1.07568e-007
vernier = 0.000591882
vernier = 0.000443911
Gmin = 1.07473e-007
vernier = 0.000591882
vernier = 0.000443911
vernier = 0.000591882
Gmin = 1.07374e-007
vernier = 0.000443911
vernier = 0.000591882
vernier = 0.000443911
Gmin = 1.07306e-007
vernier = 0.000591881
vernier = 0.000443911
Gmin = 1.07211e-007
vernier = 0.000591881
vernier = 0.000443911
vernier = 0.000591881
vernier = 0.000443911
Gmin = 1.07139e-007
vernier = 0.000591881
vernier = 0.000443911
Gmin = 1.07044e-007
vernier = 0.000591881
vernier = 0.000443911
vernier = 0.000591881
vernier = 0.00044391
Gmin = 1.06973e-007
vernier = 0.000591881
vernier = 0.00044391
Gmin = 1.06878e-007
vernier = 0.00059188
vernier = 0.00044391
vernier = 0.00059188
Gmin = 1.06779e-007
vernier = 0.00044391
vernier = 0.00059188
vernier = 0.00044391
Gmin = 1.06712e-007
vernier = 0.00059188
vernier = 0.00044391
Gmin = 1.06618e-007
vernier = 0.00059188
vernier = 0.00044391
vernier = 0.00059188
vernier = 0.00044391
Gmin = 1.06547e-007
vernier = 0.000591879
vernier = 0.00044391
Gmin = 1.06452e-007
vernier = 0.000591879
vernier = 0.000443909
vernier = 0.000591879
vernier = 0.000443909
Gmin = 1.06381e-007
vernier = 0.000591879
vernier = 0.000443909
Gmin = 1.06287e-007
vernier = 0.000591879
vernier = 0.000443909
vernier = 0.000591879
Gmin = 1.06189e-007
vernier = 0.000443909
vernier = 0.000591879
vernier = 0.000443909
Gmin = 1.06122e-007
vernier = 0.000591878
vernier = 0.000443909
Gmin = 1.06028e-007
vernier = 0.000591878
vernier = 0.000443909
vernier = 0.000591878
vernier = 0.000443909
Gmin = 1.05957e-007
vernier = 0.000591878
vernier = 0.000443908
Gmin = 1.05863e-007
vernier = 0.000591878
vernier = 0.000443908
vernier = 0.000591878
vernier = 0.000443908
Gmin = 1.05793e-007
vernier = 0.000591878
vernier = 0.000443908
Gmin = 1.05699e-007
vernier = 0.000591877
vernier = 0.000443908
vernier = 0.000591877
Gmin = 1.05601e-007
vernier = 0.000443908
vernier = 0.000591877
vernier = 0.000443908
Gmin = 1.05535e-007
vernier = 0.000591877
vernier = 0.000443908
Gmin = 1.05441e-007
vernier = 0.000591877
vernier = 0.000443908
vernier = 0.000591877
vernier = 0.000443907
Gmin = 1.05371e-007
vernier = 0.000591877
vernier = 0.000443907
Gmin = 1.05277e-007
vernier = 0.000591876
vernier = 0.000443907
vernier = 0.000591876
vernier = 0.000443907
Gmin = 1.05207e-007
vernier = 0.000591876
vernier = 0.000443907
Gmin = 1.05114e-007
vernier = 0.000591876
vernier = 0.000443907
vernier = 0.000591876
Gmin = 1.05017e-007
vernier = 0.000443907
vernier = 0.000591876
vernier = 0.000443907
Gmin = 1.04951e-007
vernier = 0.000591875
vernier = 0.000443907
Gmin = 1.04858e-007
vernier = 0.000591875
vernier = 0.000443906
vernier = 0.000591875
vernier = 0.000443906
Gmin = 1.04788e-007
vernier = 0.000591875
vernier = 0.000443906
Gmin = 1.04695e-007
vernier = 0.000591875
vernier = 0.000443906
vernier = 0.000591875
vernier = 0.000443906
Gmin = 1.04625e-007
vernier = 0.000591875
vernier = 0.000443906
Gmin = 1.04532e-007
vernier = 0.000591874
vernier = 0.000443906
vernier = 0.000591874
Gmin = 1.04436e-007
vernier = 0.000443906
vernier = 0.000591874
vernier = 0.000443906
Gmin = 1.0437e-007
vernier = 0.000591874
vernier = 0.000443905
Gmin = 1.04277e-007
vernier = 0.000591874
vernier = 0.000443905
vernier = 0.000591874
vernier = 0.000443905
Gmin = 1.04208e-007
vernier = 0.000591874
vernier = 0.000443905
Gmin = 1.04116e-007
vernier = 0.000591873
vernier = 0.000443905
vernier = 0.000591873
vernier = 0.000443905
Gmin = 1.04046e-007
vernier = 0.000591873
vernier = 0.000443905
Gmin = 1.03954e-007
vernier = 0.000591873
vernier = 0.000443905
vernier = 0.000591873
Gmin = 1.03858e-007
vernier = 0.000443905
vernier = 0.000591873
vernier = 0.000443904
Gmin = 1.03793e-007
vernier = 0.000591873
vernier = 0.000443904
Gmin = 1.037e-007
vernier = 0.000591872
vernier = 0.000443904
vernier = 0.000591872
vernier = 0.000443904
Gmin = 1.03631e-007
vernier = 0.000591872
vernier = 0.000443904
Gmin = 1.03539e-007
vernier = 0.000591872
vernier = 0.000443904
vernier = 0.000591872
vernier = 0.000443904
Gmin = 1.03471e-007
vernier = 0.000591872
vernier = 0.000443904
Gmin = 1.03379e-007
vernier = 0.000591871
vernier = 0.000443904
vernier = 0.000591871
Gmin = 1.03283e-007
vernier = 0.000443903
vernier = 0.000591871
vernier = 0.000443903
Gmin = 1.03218e-007
vernier = 0.000591871
vernier = 0.000443903
Gmin = 1.03127e-007
vernier = 0.000591871
vernier = 0.000443903
vernier = 0.000591871
vernier = 0.000443903
Gmin = 1.03058e-007
vernier = 0.000591871
vernier = 0.000443903
Gmin = 1.02967e-007
vernier = 0.00059187
vernier = 0.000443903
vernier = 0.00059187
vernier = 0.000443903
Gmin = 1.02898e-007
vernier = 0.00059187
vernier = 0.000443903
Gmin = 1.02807e-007
vernier = 0.00059187
vernier = 0.000443902
vernier = 0.00059187
Gmin = 1.02712e-007
vernier = 0.000443902
vernier = 0.00059187
vernier = 0.000443902
Gmin = 1.02647e-007
vernier = 0.00059187
vernier = 0.000443902
Gmin = 1.02556e-007
vernier = 0.000591869
vernier = 0.000443902
vernier = 0.000591869
vernier = 0.000443902
Gmin = 1.02488e-007
vernier = 0.000591869
vernier = 0.000443902
Gmin = 1.02397e-007
vernier = 0.000591869
vernier = 0.000443902
vernier = 0.000591869
vernier = 0.000443902
Gmin = 1.02329e-007
vernier = 0.000591869
vernier = 0.000443901
Gmin = 1.02238e-007
vernier = 0.000591869
vernier = 0.000443901
vernier = 0.000591868
Gmin = 1.02143e-007
vernier = 0.000443901
vernier = 0.000591868
vernier = 0.000443901
Gmin = 1.02079e-007
vernier = 0.000591868
vernier = 0.000443901
Gmin = 1.01989e-007
vernier = 0.000591868
vernier = 0.000443901
vernier = 0.000591868
vernier = 0.000443901
Gmin = 1.01921e-007
vernier = 0.000591868
vernier = 0.000443901
Gmin = 1.0183e-007
vernier = 0.000591867
vernier = 0.000443901
vernier = 0.000591867
vernier = 0.0004439
Gmin = 1.01762e-007
vernier = 0.000591867
vernier = 0.0004439
Gmin = 1.01672e-007
vernier = 0.000591867
vernier = 0.0004439
vernier = 0.000591867
Gmin = 1.01578e-007
vernier = 0.0004439
vernier = 0.000591867
vernier = 0.0004439
Gmin = 1.01514e-007
vernier = 0.000591867
vernier = 0.0004439
Gmin = 1.01424e-007
vernier = 0.000591866
vernier = 0.0004439
vernier = 0.000591866
vernier = 0.0004439
Gmin = 1.01357e-007
vernier = 0.000591866
vernier = 0.0004439
Gmin = 1.01267e-007
vernier = 0.000591866
vernier = 0.000443899
vernier = 0.000591866
vernier = 0.000443899
Gmin = 1.01199e-007
vernier = 0.000591866
vernier = 0.000443899
Gmin = 1.0111e-007
vernier = 0.000591866
vernier = 0.000443899
vernier = 0.000591865
Gmin = 1.01016e-007
vernier = 0.000443899
vernier = 0.000591865
vernier = 0.000443899
Gmin = 1.00953e-007
vernier = 0.000591865
vernier = 0.000443899
Gmin = 1.00863e-007
vernier = 0.000591865
vernier = 0.000443899
vernier = 0.000591865
vernier = 0.000443899
Gmin = 1.00796e-007
vernier = 0.000591865
vernier = 0.000443899
Gmin = 1.00706e-007
vernier = 0.000591865
vernier = 0.000443898
vernier = 0.000591864
vernier = 0.000443898
Gmin = 1.00639e-007
vernier = 0.000591864
vernier = 0.000443898
Gmin = 1.0055e-007
vernier = 0.000591864
vernier = 0.000443898
vernier = 0.000591864
Gmin = 1.00457e-007
vernier = 0.000443898
vernier = 0.000591864
vernier = 0.000443898
Gmin = 1.00394e-007
vernier = 0.000591864
vernier = 0.000443898
Gmin = 1.00305e-007
vernier = 0.000591863
vernier = 0.000443898
vernier = 0.000591863
vernier = 0.000443898
Gmin = 1.00238e-007
vernier = 0.000591863
vernier = 0.000443897
Gmin = 1.00149e-007
vernier = 0.000591863
vernier = 0.000443897
vernier = 0.000591863
vernier = 0.000443897
Gmin = 1.00083e-007
vernier = 0.000591863
vernier = 0.000443897
Gmin = 9.99938e-008
vernier = 0.000591863
vernier = 0.000443897
vernier = 0.000591862
Gmin = 9.99014e-008
vernier = 0.000443897
vernier = 0.000591862
vernier = 0.000443897
Gmin = 9.98386e-008
vernier = 0.000591862
vernier = 0.000443897
Gmin = 9.975e-008
vernier = 0.000591862
vernier = 0.000443897
vernier = 0.000591862
vernier = 0.000443896
Gmin = 9.96836e-008
vernier = 0.000591862
vernier = 0.000443896
Gmin = 9.95952e-008
vernier = 0.000591862
vernier = 0.000443896
vernier = 0.000591861
vernier = 0.000443896
Gmin = 9.95289e-008
vernier = 0.000591861
vernier = 0.000443896
Gmin = 9.94405e-008
vernier = 0.000591861
vernier = 0.000443896
vernier = 0.000591861
Gmin = 9.93486e-008
vernier = 0.000443896
vernier = 0.000591861
vernier = 0.000443896
Gmin = 9.92862e-008
vernier = 0.000591861
vernier = 0.000443896
Gmin = 9.91981e-008
vernier = 0.000591861
vernier = 0.000443895
vernier = 0.00059186
vernier = 0.000443895
Gmin = 9.91321e-008
vernier = 0.00059186
vernier = 0.000443895
Gmin = 9.90441e-008
vernier = 0.00059186
vernier = 0.000443895
vernier = 0.00059186
vernier = 0.000443895
Gmin = 9.89782e-008
vernier = 0.00059186
vernier = 0.000443895
Gmin = 9.88903e-008
vernier = 0.00059186
vernier = 0.000443895
vernier = 0.000591859
Gmin = 9.87989e-008
vernier = 0.000443895
vernier = 0.000591859
vernier = 0.000443895
Gmin = 9.87368e-008
vernier = 0.000591859
vernier = 0.000443894
Gmin = 9.86492e-008
vernier = 0.000591859
vernier = 0.000443894
vernier = 0.000591859
vernier = 0.000443894
Gmin = 9.85836e-008
vernier = 0.000591859
vernier = 0.000443894
Gmin = 9.84961e-008
vernier = 0.000591859
vernier = 0.000443894
vernier = 0.000591858
vernier = 0.000443894
Gmin = 9.84305e-008
vernier = 0.000591858
vernier = 0.000443894
Gmin = 9.83432e-008
vernier = 0.000591858
vernier = 0.000443894
vernier = 0.000591858
Gmin = 9.82523e-008
vernier = 0.000443894
vernier = 0.000591858
vernier = 0.000443893
Gmin = 9.81905e-008
vernier = 0.000591858
vernier = 0.000443893
Gmin = 9.81034e-008
vernier = 0.000591858
vernier = 0.000443893
vernier = 0.000591857
vernier = 0.000443893
Gmin = 9.80381e-008
vernier = 0.000591857
vernier = 0.000443893
Gmin = 9.79511e-008
vernier = 0.000591857
vernier = 0.000443893
vernier = 0.000591857
vernier = 0.000443893
Gmin = 9.78859e-008
vernier = 0.000591857
vernier = 0.000443893
Gmin = 9.7799e-008
vernier = 0.000591857
vernier = 0.000443893
vernier = 0.000591857
Gmin = 9.77087e-008
vernier = 0.000443892
vernier = 0.000591856
vernier = 0.000443892
Gmin = 9.76472e-008
vernier = 0.000591856
vernier = 0.000443892
Gmin = 9.75606e-008
vernier = 0.000591856
vernier = 0.000443892
vernier = 0.000591856
vernier = 0.000443892
Gmin = 9.74957e-008
vernier = 0.000591856
vernier = 0.000443892
Gmin = 9.74091e-008
vernier = 0.000591856
vernier = 0.000443892
vernier = 0.000591855
vernier = 0.000443892
Gmin = 9.73443e-008
vernier = 0.000591855
vernier = 0.000443892
Gmin = 9.72579e-008
vernier = 0.000591855
vernier = 0.000443891
vernier = 0.000591855
Gmin = 9.7168e-008
vernier = 0.000443891
vernier = 0.000591855
vernier = 0.000443891
Gmin = 9.7107e-008
vernier = 0.000591855
vernier = 0.000443891
Gmin = 9.70208e-008
vernier = 0.000591855
vernier = 0.000443891
vernier = 0.000591854
vernier = 0.000443891
Gmin = 9.69562e-008
vernier = 0.000591854
vernier = 0.000443891
Gmin = 9.68702e-008
vernier = 0.000591854
vernier = 0.000443891
vernier = 0.000591854
vernier = 0.000443891
Gmin = 9.68057e-008
vernier = 0.000591854
vernier = 0.00044389
Gmin = 9.67198e-008
vernier = 0.000591854
vernier = 0.00044389
vernier = 0.000591854
Gmin = 9.66304e-008
vernier = 0.00044389
vernier = 0.000591853
vernier = 0.00044389
Gmin = 9.65697e-008
vernier = 0.000591853
vernier = 0.00044389
Gmin = 9.6484e-008
vernier = 0.000591853
vernier = 0.00044389
vernier = 0.000591853
vernier = 0.00044389
Gmin = 9.64198e-008
vernier = 0.000591853
vernier = 0.00044389
Gmin = 9.63342e-008
vernier = 0.000591853
vernier = 0.00044389
vernier = 0.000591853
vernier = 0.000443889
Gmin = 9.62701e-008
vernier = 0.000591852
vernier = 0.000443889
Gmin = 9.61847e-008
vernier = 0.000591852
vernier = 0.000443889
vernier = 0.000591852
Gmin = 9.60958e-008
vernier = 0.000443889
vernier = 0.000591852
vernier = 0.000443889
Gmin = 9.60353e-008
vernier = 0.000591852
vernier = 0.000443889
Gmin = 9.59501e-008
vernier = 0.000591852
vernier = 0.000443889
vernier = 0.000591851
vernier = 0.000443889
Gmin = 9.58863e-008
vernier = 0.000591851
vernier = 0.000443889
Gmin = 9.58012e-008
vernier = 0.000591851
vernier = 0.000443888
vernier = 0.000591851
vernier = 0.000443888
Gmin = 9.57374e-008
vernier = 0.000591851
vernier = 0.000443888
Gmin = 9.56525e-008
vernier = 0.000591851
vernier = 0.000443888
vernier = 0.000591851
Gmin = 9.55641e-008
vernier = 0.000443888
vernier = 0.00059185
vernier = 0.000443888
Gmin = 9.5504e-008
vernier = 0.00059185
vernier = 0.000443888
Gmin = 9.54192e-008
vernier = 0.00059185
vernier = 0.000443888
vernier = 0.00059185
vernier = 0.000443888
Gmin = 9.53557e-008
vernier = 0.00059185
vernier = 0.000443887
Gmin = 9.52711e-008
vernier = 0.00059185
vernier = 0.000443887
vernier = 0.00059185
vernier = 0.000443887
Gmin = 9.52077e-008
vernier = 0.000591849
vernier = 0.000443887
Gmin = 9.51232e-008
vernier = 0.000591849
vernier = 0.000443887
vernier = 0.000591849
Gmin = 9.50353e-008
vernier = 0.000443887
vernier = 0.000591849
vernier = 0.000443887
Gmin = 9.49756e-008
vernier = 0.000591849
vernier = 0.000443887
Gmin = 9.48913e-008
vernier = 0.000591849
vernier = 0.000443887
vernier = 0.000591849
vernier = 0.000443886
Gmin = 9.48281e-008
vernier = 0.000591848
vernier = 0.000443886
Gmin = 9.4744e-008
vernier = 0.000591848
vernier = 0.000443886
vernier = 0.000591848
vernier = 0.000443886
Gmin = 9.46809e-008
vernier = 0.000591848
vernier = 0.000443886
Gmin = 9.45969e-008
vernier = 0.000591848
vernier = 0.000443886
vernier = 0.000591848
Gmin = 9.45095e-008
vernier = 0.000443886
vernier = 0.000591848
vernier = 0.000443886
Gmin = 9.44501e-008
vernier = 0.000591847
vernier = 0.000443886
Gmin = 9.43663e-008
vernier = 0.000591847
vernier = 0.000443885
vernier = 0.000591847
vernier = 0.000443885
Gmin = 9.43035e-008
vernier = 0.000591847
vernier = 0.000443885
Gmin = 9.42198e-008
vernier = 0.000591847
vernier = 0.000443885
vernier = 0.000591847
vernier = 0.000443885
Gmin = 9.41571e-008
vernier = 0.000591846
vernier = 0.000443885
Gmin = 9.40735e-008
vernier = 0.000591846
vernier = 0.000443885
vernier = 0.000591846
Gmin = 9.39866e-008
vernier = 0.000443885
vernier = 0.000591846
vernier = 0.000443885
Gmin = 9.39275e-008
vernier = 0.000591846
vernier = 0.000443884
Gmin = 9.38442e-008
vernier = 0.000591846
vernier = 0.000443884
vernier = 0.000591846
vernier = 0.000443884
Gmin = 9.37817e-008
vernier = 0.000591845
vernier = 0.000443884
Gmin = 9.36985e-008
vernier = 0.000591845
vernier = 0.000443884
vernier = 0.000591845
vernier = 0.000443884
Gmin = 9.36361e-008
vernier = 0.000591845
vernier = 0.000443884
Gmin = 9.3553e-008
vernier = 0.000591845
vernier = 0.000443884
vernier = 0.000591845
Gmin = 9.34666e-008
vernier = 0.000443884
vernier = 0.000591845
vernier = 0.000443883
Gmin = 9.34078e-008
vernier = 0.000591844
vernier = 0.000443883
Gmin = 9.33249e-008
vernier = 0.000591844
vernier = 0.000443883
vernier = 0.000591844
vernier = 0.000443883
Gmin = 9.32628e-008
vernier = 0.000591844
vernier = 0.000443883
Gmin = 9.31801e-008
vernier = 0.000591844
vernier = 0.000443883
vernier = 0.000591844
vernier = 0.000443883
Gmin = 9.3118e-008
vernier = 0.000591844
vernier = 0.000443883
Gmin = 0
Gmin stepping failed

Starting source stepping with srcstepmethod=0
Source Step = 3.0303%
Source Step = 3.0451%
Starting source stepping with srcstepmethod=1
Source Step = 3.0303%
vernier = 0.25
Source Step = 0.378788%
Source Step = 0.852273%
Source Step = 1.32576%
Source Step = 1.79924%
Source Step = 2.27273%
vernier = 0.0234375
Source Step = 2.91193%
Source Step = 3.62216%
Source Step = 4.33239%
Source Step = 5.04261%
Source Step = 5.75284%
vernier = 0.0351563
Source Step = 6.67614%
Source Step = 7.74148%
Source Step = 8.80682%
Source Step = 9.87216%
Source Step = 10.9375%
vernier = 0.0527344
Source Step = 12.2692%
Source Step = 13.8672%
Source Step = 15.4652%
Source Step = 17.0632%
Source Step = 18.6612%
vernier = 0.0791016
Source Step = 20.5788%
Source Step = 22.9759%
Source Step = 25.3729%
Source Step = 27.7699%
Source Step = 30.1669%
vernier = 0.118652
Source Step = 32.9235%
Source Step = 36.519%
Source Step = 40.1145%
Source Step = 43.71%
Source Step = 47.3056%
vernier = 0.177979
Source Step = 51.2607%
Source Step = 56.6539%
Source Step = 62.0472%
Source Step = 67.4405%
Source Step = 72.8338%
vernier = 0.266968
Source Step = 78.4968%
Source Step = 86.5867%
Source Step = 94.6766%
Source Step = 100%
Source Step = 99.0095%
Source Step = 99.0411%
Source Step = 99.0727%
Source Step = 99.1043%
Source Step = 99.1359%
Source Step = 99.1675%
Source Step = 99.1991%
Source Step = 99.2307%
Source Step = 99.2623%
Source Step = 99.2939%
Source Step = 99.3255%
Source Step = 99.3571%
Source Step = 99.3887%
Source Step = 99.4203%
Source Step = 99.4519%
Source Step = 99.4835%
Source Step = 99.5151%
Source Step = 99.5467%
Source Step = 99.5783%
Source Step = 99.6099%
Source Step = 99.6415%
Source Step = 99.6731%
Source Step = 99.7047%
Source Step = 99.7363%
Source Step = 99.7679%
Source Step = 99.7995%
Source Step = 99.8311%
Source Step = 99.8627%
Source Step = 99.8943%
Source Step = 99.9259%
Source Step = 99.9575%
Source Step = 99.9891%
Source Step = 100%
Source Step = 100%
Source Step = 100%
Source Step = 100%
Source Step = 100%
Source Step = 100%
Singular matrix:  Check node n003
   Iteration No. 24
Singular matrix:  Check node n003
   Iteration No. 1
Source Step = 100%
Source Step = 100%
Source Step = 100%
Source Step = 100%
Source Step = 100%
Source Step = 100%
Source Step = 100%
Source Step = 100%
Source Step = 100%
Source Step = 100%
Source Step = 100%
Source Step = 100%
Source Step = 100%
Source Step = 100%
Source Step = 100%
Source Step = 100%
Source Step = 100%
Source Step = 100%
Source Step = 100%
Source Step = 100%
Source Step = 100%
Source Step = 100%
Source Step = 100%
Source Step = 100%
Source Step = 100%
Source Step = 100%
Source Step = 100%
Source Step = 100%
Source Step = 100%
Singular matrix:  Check node n003
   Iteration No. 24
Source Step = 100%
Singular matrix:  Check node n003
   Iteration No. 1
Source Step = 100%
Source Step = 100%
Source Step = 100%
Source Step = 100%
Source Step = 100%
Source Step = 100%
Source Step = 100%
Source Step = 100%
Source Step = 100%
Source Step = 100%
Source Step = 100%
Source Step = 100%
Source Step = 100%
Source Step = 100%
Source Step = 100%
Source Step = 100%
Source Step = 100%
Source Step = 100%
Source Step = 100%
Source Step = 100%
Source Step = 100%
Source Step = 100%
Source Step = 100%
Source Step = 100%
Source Step = 100%
Source Step = 100%
Source Step = 100%
Source Step = 100%
Source Step = 100%
Source Step = 100%
Source Step = 100%
Source Step = 100%
Source Step = 100%
Source Step = 100%
Source Step = 100%
Source Step = 100%
Source Step = 100%
Source Step = 100%
Source Step = 100%
Source Step = 100%
Source Step = 100%
Source Step = 100%
Source Step = 100%
Source Step = 100%
Source Step = 100%
Source Step = 100%
Source Step = 100%
Source Step = 100%
Source Step = 100%
Source Step = 100%
Source Step = 100%
Source Step = 100%
Source Step = 100%
Source Step = 100%
Source Step = 100%
Source Step = 100%
Source Step = 100%
Source Step = 100%
Source Step = 100%
Source Step = 100%
Source Step = 100%
Source Step = 100%
Source Step = 100%
Source Step = 100%
Source Step = 100%
Source Step = 100%
Source Step = 100%
Source Step = 100%
Source Step = 100%
Source Step = 100%
Source Step = 100%
Source Step = 100%
Source Step = 100%
Source Step = 100%
Source Step = 100%
Source Step = 100%
Source Step = 100%
Source Step = 100%
Source Step = 100%
Source Step = 100%
Source Step = 100%
Source Step = 100%
Source Step = 100%
Source Step = 100%
Source Step = 100%
Source Step = 100%
Source Step = 100%
Source Step = 100%
Source Step = 100%
Source Step = 100%
Source Step = 100%
Source Step = 100%
Source Step = 100%
Source Step = 100%
Source Step = 100%
Source Step = 100%
Source Step = 100%
Source Step = 100%
Source Step = 100%
Source Step = 100%
Source Step = 100%
Source Step = 100%
Source Step = 100%
Source Step = 100%
Source Step = 100%
Source Step = 100%
Source Step = 100%
Source Step = 100%
Source Step = 100%
Source Step = 100%
Source Step = 100%
Source Step = 100%
Source Step = 100%
Source Step = 100%
Source Step = 100%
Source Step = 100%
Source Step = 100%
Source Step = 100%
Source Step = 100%
Source Step = 100%
Source Step = 100%
Trouble finding operating point....skipping operating point for Transient analysis.
Ignoring empty pin current: Ix(u1:3)
Ignoring empty pin current: Ix(u1:4)
Ignoring empty pin current: Ix(u1:8)
Ignoring empty pin current: Ix(u1:9)
Ignoring empty pin current: Ix(u1:10)
Ignoring empty pin current: Ix(u1:11)
Ignoring empty pin current: Ix(u1:12)
Ignoring empty pin current: Ix(u1:13)
