Circuit: * C:\Users\Nanodyn - Spare\OneDrive - Nanodyn\Desktop\GIT repository\Waveform-generator\LTspice Circuits\High side transistor switch.asc

Limiting rise time of source v2 to 0.2
Limiting fall time of source v2 to 0.2
Direct Newton iteration for .op point succeeded.

Date: Fri Jun 04 14:47:04 2021
Total elapsed time: 0.080 seconds.

tnom = 27
temp = 27
method = modified trap
totiter = 2491
traniter = 2479
tranpoints = 1144
accept = 1117
rejected = 27
matrix size = 7
fillins = 0
solver = Normal
Matrix Compiler1:      14 opcodes  0.1/[0.1]/0.1
Matrix Compiler2: 481 bytes object code size  0.1/0.1/[0.1]

