Circuit: * C:\Users\Nanodyn - Spare\OneDrive - Nanodyn\Desktop\GIT repository\Waveform-generator\LTspice Circuits\Not gate.asc

Limiting rise time of source v1 to 0.1
Limiting fall time of source v1 to 0.1
Direct Newton iteration for .op point succeeded.

Date: Thu Feb 11 11:49:25 2021
Total elapsed time: 0.202 seconds.

tnom = 27
temp = 27
method = modified trap
totiter = 2574
traniter = 2567
tranpoints = 1176
accept = 1141
rejected = 35
matrix size = 6
fillins = 0
solver = Normal
Matrix Compiler1: 146 bytes object code size  0.2/0.2/[0.1]
Matrix Compiler2: 380 bytes object code size  0.2/0.4/[0.2]

